version 2
run TwoClusters-0-20190823-09:40:41-2936
attr configname TwoClusters
attr datetime 20190823-09:40:41
attr experiment TwoClusters
attr inifile DHT-based_static_scenarios.ini
attr iterationvars $0=0
attr iterationvars2 "$0=0, $repetition=0"
attr measurement $0=0
attr network p2psipmanet.simulations.hierarchical
attr processid 2936
attr repetition 0
attr replication #0
attr resultdir results
attr runnumber 0
attr seedset 0

scalar hierarchical.gw[0].networkLayer.arp 	failedARPResolution:count 	0
attr title  "ARP failed resolutions, count"
scalar hierarchical.gw[0].networkLayer.arp 	completedARPResolution:count 	13
attr title  "ARP completed resolutions, count"
scalar hierarchical.gw[0].networkLayer.arp 	initiatedARPResolution:count 	0
attr title  "ARP initiated resolutions, count"
scalar hierarchical.gw[0].networkLayer.arp 	sentReply:count 	8
attr title  "ARP replies sent, count"
scalar hierarchical.gw[0].networkLayer.arp 	sentReq:count 	0
attr title  "ARP request sent, count"
scalar hierarchical.gw[0].lo0.lo 	droppedPkBitError:count 	0
attr interpolationmode  none
attr source  dropPkBitError
attr title  "packets dropped/bit error, count"
scalar hierarchical.gw[0].lo0.lo 	droppedPkBitError:sum(packetBytes) 	0
attr interpolationmode  none
attr source  dropPkBitError
attr title  "packets dropped/bit error, sum(packetBytes)"
scalar hierarchical.gw[0].lo0.lo 	rcvdPkFromHL:count 	32
attr interpolationmode  none
attr source  packetReceivedFromUpper
attr title  "packets received from higher layer, count"
scalar hierarchical.gw[0].lo0.lo 	rcvdPkFromHL:sum(packetBytes) 	3096
attr interpolationmode  none
attr source  packetReceivedFromUpper
attr title  "packets received from higher layer, sum(packetBytes)"
scalar hierarchical.gw[0].lo0.lo 	passedUpPk:count 	32
attr interpolationmode  none
attr source  packetSentToUpper
attr title  "packets passed to higher layer, count"
scalar hierarchical.gw[0].lo0.lo 	passedUpPk:sum(packetBytes) 	3096
attr interpolationmode  none
attr source  packetSentToUpper
attr title  "packets passed to higher layer, sum(packetBytes)"
scalar hierarchical.gw[0].wlan[0].mgmt 	dataQueueLen:max 	0
attr interpolationmode  sample-hold
attr title  "data queue length, max"
scalar hierarchical.gw[0].wlan[0].mgmt 	dataQueueLen:timeavg 	0
attr interpolationmode  sample-hold
attr title  "data queue length, timeavg"
scalar hierarchical.gw[0].wlan[0].mgmt 	dropPkByQueue:count 	0
attr interpolationmode  none
attr source  dropPkByQueue
attr title  "packets dropped by queue, count"
scalar hierarchical.gw[0].wlan[0].mgmt 	dropPkByQueue:sum(packetBytes) 	0
attr interpolationmode  none
attr source  dropPkByQueue
attr title  "packets dropped by queue, sum(packetBytes)"
scalar hierarchical.gw[0].wlan[0].mac 	"number of received packets" 	0
scalar hierarchical.gw[0].wlan[0].mac 	"number of collisions" 	18
scalar hierarchical.gw[0].wlan[0].mac 	"number of internal collisions" 	0
scalar hierarchical.gw[0].wlan[0].mac 	"number of retry for AC 0" 	0
scalar hierarchical.gw[0].wlan[0].mac 	"sent and received bits" 	784720
scalar hierarchical.gw[0].wlan[0].mac 	"sent packet within AC 0" 	0
scalar hierarchical.gw[0].wlan[0].mac 	"sent in TXOP " 	0
scalar hierarchical.gw[0].wlan[0].mac 	"sentWithoutRetry AC 0" 	0
scalar hierarchical.gw[0].wlan[0].mac 	"numGivenUp AC 0" 	0
scalar hierarchical.gw[0].wlan[0].mac 	"numDropped AC 0" 	0
scalar hierarchical.gw[0].wlan[0].mac 	rcvdPkFromHL:count 	763
attr interpolationmode  none
attr source  packetReceivedFromUpper
attr title  "packets received from higher layer, count"
scalar hierarchical.gw[0].wlan[0].mac 	rcvdPkFromHL:sum(packetBytes) 	98090
attr interpolationmode  none
attr source  packetReceivedFromUpper
attr title  "packets received from higher layer, sum(packetBytes)"
scalar hierarchical.gw[0].wlan[0].mac 	passedUpPk:count 	8464
attr interpolationmode  none
attr source  packetSentToUpper
attr title  "packets passed to higher layer, count"
scalar hierarchical.gw[0].wlan[0].mac 	passedUpPk:sum(packetBytes) 	962984
attr interpolationmode  none
attr source  packetSentToUpper
attr title  "packets passed to higher layer, sum(packetBytes)"
scalar hierarchical.gw[0].wlan[0].mac 	rcvdPkFromLL:count 	8482
attr interpolationmode  none
attr source  packetReceivedFromLower
attr title  "packets received from lower layer, count"
scalar hierarchical.gw[0].wlan[0].mac 	rcvdPkFromLL:sum(packetBytes) 	964980
attr interpolationmode  none
attr source  packetReceivedFromLower
attr title  "packets received from lower layer, sum(packetBytes)"
scalar hierarchical.gw[0].wlan[0].mac 	sentDownPk:count 	763
attr interpolationmode  none
attr source  packetSentToLower
attr title  "packets sent to lower layer, count"
scalar hierarchical.gw[0].wlan[0].mac 	sentDownPk:sum(packetBytes) 	98090
attr interpolationmode  none
attr source  packetSentToLower
attr title  "packets sent to lower layer, sum(packetBytes)"
scalar hierarchical.gw[0].wlan[0].radio 	lossRate:min 	0
attr interpolationmode  backward-sample-hold
attr title  "packet loss rate, min"
scalar hierarchical.gw[0].wlan[0].radio 	lossRate:max 	0.06
attr interpolationmode  backward-sample-hold
attr title  "packet loss rate, max"
scalar hierarchical.gw[0].wlan[0].radio 	lossRate:timeavg 	0.0021024491596657
attr interpolationmode  backward-sample-hold
attr title  "packet loss rate, timeavg"
statistic hierarchical.gw[0].wlan[0].radio 	channelNo:histogram
field count 1
field mean 0
field stddev -nan
field sum 0
field sqrsum 0
field min 0
field max 0
attr interpolationmode  sample-hold
attr title  "channel no, histogram"
bin	-INF	0
bin	-0.5	0
bin	-0.46666666666667	0
bin	-0.43333333333333	0
bin	-0.4	0
bin	-0.36666666666667	0
bin	-0.33333333333333	0
bin	-0.3	0
bin	-0.26666666666667	0
bin	-0.23333333333333	0
bin	-0.2	0
bin	-0.16666666666667	0
bin	-0.13333333333333	0
bin	-0.1	0
bin	-0.066666666666667	0
bin	-0.033333333333333	0
bin	0	1
bin	0.033333333333333	0
bin	0.066666666666667	0
bin	0.1	0
bin	0.13333333333333	0
bin	0.16666666666667	0
bin	0.2	0
bin	0.23333333333333	0
bin	0.26666666666667	0
bin	0.3	0
bin	0.33333333333333	0
bin	0.36666666666667	0
bin	0.4	0
bin	0.43333333333333	0
bin	0.46666666666667	0
bin	0.5	0
scalar hierarchical.gw[0].wlan[0].radio 	bitrate:min 	11000000
attr interpolationmode  sample-hold
attr title  "tx bitrate, min"
attr unit  bps
scalar hierarchical.gw[0].wlan[0].radio 	bitrate:max 	11000000
attr interpolationmode  sample-hold
attr title  "tx bitrate, max"
attr unit  bps
scalar hierarchical.gw[0].wlan[0].radio 	bitrate:timeavg 	11000000
attr interpolationmode  sample-hold
attr title  "tx bitrate, timeavg"
attr unit  bps
scalar hierarchical.gw[0].wlan[0].radio 	radioState:count 	18493
attr interpolationmode  sample-hold
attr title  "radio state (enum), count"
scalar hierarchical.gw[0].wlan[1].mgmt 	dataQueueLen:max 	2
attr interpolationmode  sample-hold
attr title  "data queue length, max"
scalar hierarchical.gw[0].wlan[1].mgmt 	dataQueueLen:timeavg 	0.00012291888888889
attr interpolationmode  sample-hold
attr title  "data queue length, timeavg"
scalar hierarchical.gw[0].wlan[1].mgmt 	dropPkByQueue:count 	0
attr interpolationmode  none
attr source  dropPkByQueue
attr title  "packets dropped by queue, count"
scalar hierarchical.gw[0].wlan[1].mgmt 	dropPkByQueue:sum(packetBytes) 	0
attr interpolationmode  none
attr source  dropPkByQueue
attr title  "packets dropped by queue, sum(packetBytes)"
scalar hierarchical.gw[0].wlan[1].mac 	"number of received packets" 	692
scalar hierarchical.gw[0].wlan[1].mac 	"number of collisions" 	11
scalar hierarchical.gw[0].wlan[1].mac 	"number of internal collisions" 	0
scalar hierarchical.gw[0].wlan[1].mac 	"number of retry for AC 0" 	352
scalar hierarchical.gw[0].wlan[1].mac 	"sent and received bits" 	1175953
scalar hierarchical.gw[0].wlan[1].mac 	"sent packet within AC 0" 	696
scalar hierarchical.gw[0].wlan[1].mac 	"sent in TXOP " 	0
scalar hierarchical.gw[0].wlan[1].mac 	"sentWithoutRetry AC 0" 	582
scalar hierarchical.gw[0].wlan[1].mac 	"numGivenUp AC 0" 	1
scalar hierarchical.gw[0].wlan[1].mac 	"numDropped AC 0" 	0
scalar hierarchical.gw[0].wlan[1].mac 	rcvdPkFromHL:count 	1344
attr interpolationmode  none
attr source  packetReceivedFromUpper
attr title  "packets received from higher layer, count"
scalar hierarchical.gw[0].wlan[1].mac 	rcvdPkFromHL:sum(packetBytes) 	147201
attr interpolationmode  none
attr source  packetReceivedFromUpper
attr title  "packets received from higher layer, sum(packetBytes)"
scalar hierarchical.gw[0].wlan[1].mac 	passedUpPk:count 	2032
attr interpolationmode  none
attr source  packetSentToUpper
attr title  "packets passed to higher layer, count"
scalar hierarchical.gw[0].wlan[1].mac 	passedUpPk:sum(packetBytes) 	227235
attr interpolationmode  none
attr source  packetSentToUpper
attr title  "packets passed to higher layer, sum(packetBytes)"
scalar hierarchical.gw[0].wlan[1].mac 	rcvdPkFromLL:count 	4381
attr interpolationmode  none
attr source  packetReceivedFromLower
attr title  "packets received from lower layer, count"
scalar hierarchical.gw[0].wlan[1].mac 	rcvdPkFromLL:sum(packetBytes) 	361877
attr interpolationmode  none
attr source  packetReceivedFromLower
attr title  "packets received from lower layer, sum(packetBytes)"
scalar hierarchical.gw[0].wlan[1].mac 	sentDownPk:count 	2388
attr interpolationmode  none
attr source  packetSentToLower
attr title  "packets sent to lower layer, count"
scalar hierarchical.gw[0].wlan[1].mac 	sentDownPk:sum(packetBytes) 	201659
attr interpolationmode  none
attr source  packetSentToLower
attr title  "packets sent to lower layer, sum(packetBytes)"
scalar hierarchical.gw[0].wlan[1].radio 	lossRate:min 	0
attr interpolationmode  backward-sample-hold
attr title  "packet loss rate, min"
scalar hierarchical.gw[0].wlan[1].radio 	lossRate:max 	0.04
attr interpolationmode  backward-sample-hold
attr title  "packet loss rate, max"
scalar hierarchical.gw[0].wlan[1].radio 	lossRate:timeavg 	0.0017694720280917
attr interpolationmode  backward-sample-hold
attr title  "packet loss rate, timeavg"
statistic hierarchical.gw[0].wlan[1].radio 	channelNo:histogram
field count 1
field mean 5
field stddev -nan
field sum 5
field sqrsum 25
field min 5
field max 5
attr interpolationmode  sample-hold
attr title  "channel no, histogram"
bin	-INF	0
bin	4	0
bin	5	1
bin	6	0
scalar hierarchical.gw[0].wlan[1].radio 	bitrate:min 	11000000
attr interpolationmode  sample-hold
attr title  "tx bitrate, min"
attr unit  bps
scalar hierarchical.gw[0].wlan[1].radio 	bitrate:max 	11000000
attr interpolationmode  sample-hold
attr title  "tx bitrate, max"
attr unit  bps
scalar hierarchical.gw[0].wlan[1].radio 	bitrate:timeavg 	11000000
attr interpolationmode  sample-hold
attr title  "tx bitrate, timeavg"
attr unit  bps
scalar hierarchical.gw[0].wlan[1].radio 	radioState:count 	13553
attr interpolationmode  sample-hold
attr title  "radio state (enum), count"
scalar hierarchical.gw[0].manetrouting 	OLSR_HNA_Messages_(Forwarded) 	0
scalar hierarchical.gw[0].manetrouting 	OLSR_TC_Messages_(Forwarded) 	374
scalar hierarchical.gw[0].manetrouting 	OLSR_Total_HELLO 	513
scalar hierarchical.gw[0].manetrouting 	OLSR_Total_HNA_(originated) 	189
scalar hierarchical.gw[0].manetrouting 	OLSR_Total_TC 	0
scalar hierarchical.gw[0].manetrouting 	OLSR_Total_Messages_Sent 	1076
scalar hierarchical.gw[0].backbonemanetrouting 	OLSR_HNA_Messages_(Forwarded) 	0
scalar hierarchical.gw[0].backbonemanetrouting 	OLSR_TC_Messages_(Forwarded) 	559
scalar hierarchical.gw[0].backbonemanetrouting 	OLSR_Total_HELLO 	515
scalar hierarchical.gw[0].backbonemanetrouting 	OLSR_Total_HNA_(originated) 	0
scalar hierarchical.gw[0].backbonemanetrouting 	OLSR_Total_TC 	0
scalar hierarchical.gw[0].backbonemanetrouting 	OLSR_Total_Messages_Sent 	1074
scalar hierarchical.gw[0].udp 	droppedPkBadChecksum:count 	0
attr interpolationmode  none
attr title  "packets dropped (checksum error), count"
scalar hierarchical.gw[0].udp 	droppedPkWrongPort:count 	0
attr interpolationmode  none
attr title  "packets dropped (wrong port), count"
scalar hierarchical.gw[0].udp 	passedUpPk:count 	696
attr interpolationmode  none
attr title  "packets passed up, count"
scalar hierarchical.gw[0].udp 	rcvdPk:count 	696
attr interpolationmode  none
attr source  rcvdPk
attr title  "packets received, count"
scalar hierarchical.gw[0].udp 	rcvdPk:sum(packetBytes) 	40657
attr interpolationmode  none
attr source  rcvdPk
attr title  "packets received, sum(packetBytes)"
scalar hierarchical.gw[0].udp 	sentPk:count 	721
attr interpolationmode  none
attr source  sentPk
attr title  "packets sent, count"
scalar hierarchical.gw[0].udp 	sentPk:sum(packetBytes) 	43109
attr interpolationmode  none
attr source  sentPk
attr title  "packets sent, sum(packetBytes)"
scalar hierarchical.gw[1].networkLayer.arp 	failedARPResolution:count 	0
attr title  "ARP failed resolutions, count"
scalar hierarchical.gw[1].networkLayer.arp 	completedARPResolution:count 	19
attr title  "ARP completed resolutions, count"
scalar hierarchical.gw[1].networkLayer.arp 	initiatedARPResolution:count 	13
attr title  "ARP initiated resolutions, count"
scalar hierarchical.gw[1].networkLayer.arp 	sentReply:count 	3
attr title  "ARP replies sent, count"
scalar hierarchical.gw[1].networkLayer.arp 	sentReq:count 	13
attr title  "ARP request sent, count"
scalar hierarchical.gw[1].lo0.lo 	droppedPkBitError:count 	0
attr interpolationmode  none
attr source  dropPkBitError
attr title  "packets dropped/bit error, count"
scalar hierarchical.gw[1].lo0.lo 	droppedPkBitError:sum(packetBytes) 	0
attr interpolationmode  none
attr source  dropPkBitError
attr title  "packets dropped/bit error, sum(packetBytes)"
scalar hierarchical.gw[1].lo0.lo 	rcvdPkFromHL:count 	18
attr interpolationmode  none
attr source  packetReceivedFromUpper
attr title  "packets received from higher layer, count"
scalar hierarchical.gw[1].lo0.lo 	rcvdPkFromHL:sum(packetBytes) 	1994
attr interpolationmode  none
attr source  packetReceivedFromUpper
attr title  "packets received from higher layer, sum(packetBytes)"
scalar hierarchical.gw[1].lo0.lo 	passedUpPk:count 	18
attr interpolationmode  none
attr source  packetSentToUpper
attr title  "packets passed to higher layer, count"
scalar hierarchical.gw[1].lo0.lo 	passedUpPk:sum(packetBytes) 	1994
attr interpolationmode  none
attr source  packetSentToUpper
attr title  "packets passed to higher layer, sum(packetBytes)"
scalar hierarchical.gw[1].wlan[0].mgmt 	dataQueueLen:max 	0
attr interpolationmode  sample-hold
attr title  "data queue length, max"
scalar hierarchical.gw[1].wlan[0].mgmt 	dataQueueLen:timeavg 	0
attr interpolationmode  sample-hold
attr title  "data queue length, timeavg"
scalar hierarchical.gw[1].wlan[0].mgmt 	dropPkByQueue:count 	0
attr interpolationmode  none
attr source  dropPkByQueue
attr title  "packets dropped by queue, count"
scalar hierarchical.gw[1].wlan[0].mgmt 	dropPkByQueue:sum(packetBytes) 	0
attr interpolationmode  none
attr source  dropPkByQueue
attr title  "packets dropped by queue, sum(packetBytes)"
scalar hierarchical.gw[1].wlan[0].mac 	"number of received packets" 	0
scalar hierarchical.gw[1].wlan[0].mac 	"number of collisions" 	0
scalar hierarchical.gw[1].wlan[0].mac 	"number of internal collisions" 	0
scalar hierarchical.gw[1].wlan[0].mac 	"number of retry for AC 0" 	0
scalar hierarchical.gw[1].wlan[0].mac 	"sent and received bits" 	574800
scalar hierarchical.gw[1].wlan[0].mac 	"sent packet within AC 0" 	0
scalar hierarchical.gw[1].wlan[0].mac 	"sent in TXOP " 	0
scalar hierarchical.gw[1].wlan[0].mac 	"sentWithoutRetry AC 0" 	0
scalar hierarchical.gw[1].wlan[0].mac 	"numGivenUp AC 0" 	0
scalar hierarchical.gw[1].wlan[0].mac 	"numDropped AC 0" 	0
scalar hierarchical.gw[1].wlan[0].mac 	rcvdPkFromHL:count 	767
attr interpolationmode  none
attr source  packetReceivedFromUpper
attr title  "packets received from higher layer, count"
scalar hierarchical.gw[1].wlan[0].mac 	rcvdPkFromHL:sum(packetBytes) 	71850
attr interpolationmode  none
attr source  packetReceivedFromUpper
attr title  "packets received from higher layer, sum(packetBytes)"
scalar hierarchical.gw[1].wlan[0].mac 	passedUpPk:count 	0
attr interpolationmode  none
attr source  packetSentToUpper
attr title  "packets passed to higher layer, count"
scalar hierarchical.gw[1].wlan[0].mac 	passedUpPk:sum(packetBytes) 	0
attr interpolationmode  none
attr source  packetSentToUpper
attr title  "packets passed to higher layer, sum(packetBytes)"
scalar hierarchical.gw[1].wlan[0].mac 	rcvdPkFromLL:count 	0
attr interpolationmode  none
attr source  packetReceivedFromLower
attr title  "packets received from lower layer, count"
scalar hierarchical.gw[1].wlan[0].mac 	rcvdPkFromLL:sum(packetBytes) 	0
attr interpolationmode  none
attr source  packetReceivedFromLower
attr title  "packets received from lower layer, sum(packetBytes)"
scalar hierarchical.gw[1].wlan[0].mac 	sentDownPk:count 	767
attr interpolationmode  none
attr source  packetSentToLower
attr title  "packets sent to lower layer, count"
scalar hierarchical.gw[1].wlan[0].mac 	sentDownPk:sum(packetBytes) 	71850
attr interpolationmode  none
attr source  packetSentToLower
attr title  "packets sent to lower layer, sum(packetBytes)"
scalar hierarchical.gw[1].wlan[0].radio 	lossRate:min 	-nan
attr interpolationmode  backward-sample-hold
attr title  "packet loss rate, min"
scalar hierarchical.gw[1].wlan[0].radio 	lossRate:max 	-nan
attr interpolationmode  backward-sample-hold
attr title  "packet loss rate, max"
scalar hierarchical.gw[1].wlan[0].radio 	lossRate:timeavg 	-nan
attr interpolationmode  backward-sample-hold
attr title  "packet loss rate, timeavg"
statistic hierarchical.gw[1].wlan[0].radio 	channelNo:histogram
field count 1
field mean 1
field stddev -nan
field sum 1
field sqrsum 1
field min 1
field max 1
attr interpolationmode  sample-hold
attr title  "channel no, histogram"
bin	-INF	0
bin	0	0
bin	1	1
bin	2	0
scalar hierarchical.gw[1].wlan[0].radio 	bitrate:min 	11000000
attr interpolationmode  sample-hold
attr title  "tx bitrate, min"
attr unit  bps
scalar hierarchical.gw[1].wlan[0].radio 	bitrate:max 	11000000
attr interpolationmode  sample-hold
attr title  "tx bitrate, max"
attr unit  bps
scalar hierarchical.gw[1].wlan[0].radio 	bitrate:timeavg 	11000000
attr interpolationmode  sample-hold
attr title  "tx bitrate, timeavg"
attr unit  bps
scalar hierarchical.gw[1].wlan[0].radio 	radioState:count 	1535
attr interpolationmode  sample-hold
attr title  "radio state (enum), count"
scalar hierarchical.gw[1].wlan[1].mgmt 	dataQueueLen:max 	10
attr interpolationmode  sample-hold
attr title  "data queue length, max"
scalar hierarchical.gw[1].wlan[1].mgmt 	dataQueueLen:timeavg 	7.4086666666667e-05
attr interpolationmode  sample-hold
attr title  "data queue length, timeavg"
scalar hierarchical.gw[1].wlan[1].mgmt 	dropPkByQueue:count 	0
attr interpolationmode  none
attr source  dropPkByQueue
attr title  "packets dropped by queue, count"
scalar hierarchical.gw[1].wlan[1].mgmt 	dropPkByQueue:sum(packetBytes) 	0
attr interpolationmode  none
attr source  dropPkByQueue
attr title  "packets dropped by queue, sum(packetBytes)"
scalar hierarchical.gw[1].wlan[1].mac 	"number of received packets" 	1422
scalar hierarchical.gw[1].wlan[1].mac 	"number of collisions" 	373
scalar hierarchical.gw[1].wlan[1].mac 	"number of internal collisions" 	0
scalar hierarchical.gw[1].wlan[1].mac 	"number of retry for AC 0" 	208
scalar hierarchical.gw[1].wlan[1].mac 	"sent and received bits" 	2529681
scalar hierarchical.gw[1].wlan[1].mac 	"sent packet within AC 0" 	1417
scalar hierarchical.gw[1].wlan[1].mac 	"sent in TXOP " 	0
scalar hierarchical.gw[1].wlan[1].mac 	"sentWithoutRetry AC 0" 	1315
scalar hierarchical.gw[1].wlan[1].mac 	"numGivenUp AC 0" 	1
scalar hierarchical.gw[1].wlan[1].mac 	"numDropped AC 0" 	0
scalar hierarchical.gw[1].wlan[1].mac 	rcvdPkFromHL:count 	2759
attr interpolationmode  none
attr source  packetReceivedFromUpper
attr title  "packets received from higher layer, count"
scalar hierarchical.gw[1].wlan[1].mac 	rcvdPkFromHL:sum(packetBytes) 	316457
attr interpolationmode  none
attr source  packetReceivedFromUpper
attr title  "packets received from higher layer, sum(packetBytes)"
scalar hierarchical.gw[1].wlan[1].mac 	passedUpPk:count 	3387
attr interpolationmode  none
attr source  packetSentToUpper
attr title  "packets passed to higher layer, count"
scalar hierarchical.gw[1].wlan[1].mac 	passedUpPk:sum(packetBytes) 	373910
attr interpolationmode  none
attr source  packetSentToUpper
attr title  "packets passed to higher layer, sum(packetBytes)"
scalar hierarchical.gw[1].wlan[1].mac 	rcvdPkFromLL:count 	6684
attr interpolationmode  none
attr source  packetReceivedFromLower
attr title  "packets received from lower layer, count"
scalar hierarchical.gw[1].wlan[1].mac 	rcvdPkFromLL:sum(packetBytes) 	547617
attr interpolationmode  none
attr source  packetReceivedFromLower
attr title  "packets received from lower layer, sum(packetBytes)"
scalar hierarchical.gw[1].wlan[1].mac 	sentDownPk:count 	4389
attr interpolationmode  none
attr source  packetSentToLower
attr title  "packets sent to lower layer, count"
scalar hierarchical.gw[1].wlan[1].mac 	sentDownPk:sum(packetBytes) 	362939
attr interpolationmode  none
attr source  packetSentToLower
attr title  "packets sent to lower layer, sum(packetBytes)"
scalar hierarchical.gw[1].wlan[1].radio 	lossRate:min 	0
attr interpolationmode  backward-sample-hold
attr title  "packet loss rate, min"
scalar hierarchical.gw[1].wlan[1].radio 	lossRate:max 	0.34
attr interpolationmode  backward-sample-hold
attr title  "packet loss rate, max"
scalar hierarchical.gw[1].wlan[1].radio 	lossRate:timeavg 	0.041065422819451
attr interpolationmode  backward-sample-hold
attr title  "packet loss rate, timeavg"
statistic hierarchical.gw[1].wlan[1].radio 	channelNo:histogram
field count 1
field mean 5
field stddev -nan
field sum 5
field sqrsum 25
field min 5
field max 5
attr interpolationmode  sample-hold
attr title  "channel no, histogram"
bin	-INF	0
bin	4	0
bin	5	1
bin	6	0
scalar hierarchical.gw[1].wlan[1].radio 	bitrate:min 	11000000
attr interpolationmode  sample-hold
attr title  "tx bitrate, min"
attr unit  bps
scalar hierarchical.gw[1].wlan[1].radio 	bitrate:max 	11000000
attr interpolationmode  sample-hold
attr title  "tx bitrate, max"
attr unit  bps
scalar hierarchical.gw[1].wlan[1].radio 	bitrate:timeavg 	11000000
attr interpolationmode  sample-hold
attr title  "tx bitrate, timeavg"
attr unit  bps
scalar hierarchical.gw[1].wlan[1].radio 	radioState:count 	22156
attr interpolationmode  sample-hold
attr title  "radio state (enum), count"
scalar hierarchical.gw[1].manetrouting 	OLSR_HNA_Messages_(Forwarded) 	0
scalar hierarchical.gw[1].manetrouting 	OLSR_TC_Messages_(Forwarded) 	0
scalar hierarchical.gw[1].manetrouting 	OLSR_Total_HELLO 	517
scalar hierarchical.gw[1].manetrouting 	OLSR_Total_HNA_(originated) 	189
scalar hierarchical.gw[1].manetrouting 	OLSR_Total_TC 	0
scalar hierarchical.gw[1].manetrouting 	OLSR_Total_Messages_Sent 	706
scalar hierarchical.gw[1].backbonemanetrouting 	OLSR_HNA_Messages_(Forwarded) 	0
scalar hierarchical.gw[1].backbonemanetrouting 	OLSR_TC_Messages_(Forwarded) 	374
scalar hierarchical.gw[1].backbonemanetrouting 	OLSR_Total_HELLO 	514
scalar hierarchical.gw[1].backbonemanetrouting 	OLSR_Total_HNA_(originated) 	0
scalar hierarchical.gw[1].backbonemanetrouting 	OLSR_Total_TC 	188
scalar hierarchical.gw[1].backbonemanetrouting 	OLSR_Total_Messages_Sent 	1076
scalar hierarchical.gw[1].udp 	droppedPkBadChecksum:count 	0
attr interpolationmode  none
attr title  "packets dropped (checksum error), count"
scalar hierarchical.gw[1].udp 	droppedPkWrongPort:count 	0
attr interpolationmode  none
attr title  "packets dropped (wrong port), count"
scalar hierarchical.gw[1].udp 	passedUpPk:count 	671
attr interpolationmode  none
attr title  "packets passed up, count"
scalar hierarchical.gw[1].udp 	rcvdPk:count 	671
attr interpolationmode  none
attr source  rcvdPk
attr title  "packets received, count"
scalar hierarchical.gw[1].udp 	rcvdPk:sum(packetBytes) 	39160
attr interpolationmode  none
attr source  rcvdPk
attr title  "packets received, sum(packetBytes)"
scalar hierarchical.gw[1].udp 	sentPk:count 	696
attr interpolationmode  none
attr source  sentPk
attr title  "packets sent, count"
scalar hierarchical.gw[1].udp 	sentPk:sum(packetBytes) 	42619
attr interpolationmode  none
attr source  sentPk
attr title  "packets sent, sum(packetBytes)"
scalar hierarchical.gw[2].networkLayer.arp 	failedARPResolution:count 	0
attr title  "ARP failed resolutions, count"
scalar hierarchical.gw[2].networkLayer.arp 	completedARPResolution:count 	27
attr title  "ARP completed resolutions, count"
scalar hierarchical.gw[2].networkLayer.arp 	initiatedARPResolution:count 	6
attr title  "ARP initiated resolutions, count"
scalar hierarchical.gw[2].networkLayer.arp 	sentReply:count 	10
attr title  "ARP replies sent, count"
scalar hierarchical.gw[2].networkLayer.arp 	sentReq:count 	6
attr title  "ARP request sent, count"
scalar hierarchical.gw[2].lo0.lo 	droppedPkBitError:count 	0
attr interpolationmode  none
attr source  dropPkBitError
attr title  "packets dropped/bit error, count"
scalar hierarchical.gw[2].lo0.lo 	droppedPkBitError:sum(packetBytes) 	0
attr interpolationmode  none
attr source  dropPkBitError
attr title  "packets dropped/bit error, sum(packetBytes)"
scalar hierarchical.gw[2].lo0.lo 	rcvdPkFromHL:count 	1
attr interpolationmode  none
attr source  packetReceivedFromUpper
attr title  "packets received from higher layer, count"
scalar hierarchical.gw[2].lo0.lo 	rcvdPkFromHL:sum(packetBytes) 	56
attr interpolationmode  none
attr source  packetReceivedFromUpper
attr title  "packets received from higher layer, sum(packetBytes)"
scalar hierarchical.gw[2].lo0.lo 	passedUpPk:count 	1
attr interpolationmode  none
attr source  packetSentToUpper
attr title  "packets passed to higher layer, count"
scalar hierarchical.gw[2].lo0.lo 	passedUpPk:sum(packetBytes) 	56
attr interpolationmode  none
attr source  packetSentToUpper
attr title  "packets passed to higher layer, sum(packetBytes)"
scalar hierarchical.gw[2].wlan[0].mgmt 	dataQueueLen:max 	0
attr interpolationmode  sample-hold
attr title  "data queue length, max"
scalar hierarchical.gw[2].wlan[0].mgmt 	dataQueueLen:timeavg 	0
attr interpolationmode  sample-hold
attr title  "data queue length, timeavg"
scalar hierarchical.gw[2].wlan[0].mgmt 	dropPkByQueue:count 	0
attr interpolationmode  none
attr source  dropPkByQueue
attr title  "packets dropped by queue, count"
scalar hierarchical.gw[2].wlan[0].mgmt 	dropPkByQueue:sum(packetBytes) 	0
attr interpolationmode  none
attr source  dropPkByQueue
attr title  "packets dropped by queue, sum(packetBytes)"
scalar hierarchical.gw[2].wlan[0].mac 	"number of received packets" 	0
scalar hierarchical.gw[2].wlan[0].mac 	"number of collisions" 	0
scalar hierarchical.gw[2].wlan[0].mac 	"number of internal collisions" 	0
scalar hierarchical.gw[2].wlan[0].mac 	"number of retry for AC 0" 	0
scalar hierarchical.gw[2].wlan[0].mac 	"sent and received bits" 	586672
scalar hierarchical.gw[2].wlan[0].mac 	"sent packet within AC 0" 	0
scalar hierarchical.gw[2].wlan[0].mac 	"sent in TXOP " 	0
scalar hierarchical.gw[2].wlan[0].mac 	"sentWithoutRetry AC 0" 	0
scalar hierarchical.gw[2].wlan[0].mac 	"numGivenUp AC 0" 	0
scalar hierarchical.gw[2].wlan[0].mac 	"numDropped AC 0" 	0
scalar hierarchical.gw[2].wlan[0].mac 	rcvdPkFromHL:count 	787
attr interpolationmode  none
attr source  packetReceivedFromUpper
attr title  "packets received from higher layer, count"
scalar hierarchical.gw[2].wlan[0].mac 	rcvdPkFromHL:sum(packetBytes) 	73334
attr interpolationmode  none
attr source  packetReceivedFromUpper
attr title  "packets received from higher layer, sum(packetBytes)"
scalar hierarchical.gw[2].wlan[0].mac 	passedUpPk:count 	0
attr interpolationmode  none
attr source  packetSentToUpper
attr title  "packets passed to higher layer, count"
scalar hierarchical.gw[2].wlan[0].mac 	passedUpPk:sum(packetBytes) 	0
attr interpolationmode  none
attr source  packetSentToUpper
attr title  "packets passed to higher layer, sum(packetBytes)"
scalar hierarchical.gw[2].wlan[0].mac 	rcvdPkFromLL:count 	0
attr interpolationmode  none
attr source  packetReceivedFromLower
attr title  "packets received from lower layer, count"
scalar hierarchical.gw[2].wlan[0].mac 	rcvdPkFromLL:sum(packetBytes) 	0
attr interpolationmode  none
attr source  packetReceivedFromLower
attr title  "packets received from lower layer, sum(packetBytes)"
scalar hierarchical.gw[2].wlan[0].mac 	sentDownPk:count 	787
attr interpolationmode  none
attr source  packetSentToLower
attr title  "packets sent to lower layer, count"
scalar hierarchical.gw[2].wlan[0].mac 	sentDownPk:sum(packetBytes) 	73334
attr interpolationmode  none
attr source  packetSentToLower
attr title  "packets sent to lower layer, sum(packetBytes)"
scalar hierarchical.gw[2].wlan[0].radio 	lossRate:min 	-nan
attr interpolationmode  backward-sample-hold
attr title  "packet loss rate, min"
scalar hierarchical.gw[2].wlan[0].radio 	lossRate:max 	-nan
attr interpolationmode  backward-sample-hold
attr title  "packet loss rate, max"
scalar hierarchical.gw[2].wlan[0].radio 	lossRate:timeavg 	-nan
attr interpolationmode  backward-sample-hold
attr title  "packet loss rate, timeavg"
statistic hierarchical.gw[2].wlan[0].radio 	channelNo:histogram
field count 1
field mean 2
field stddev -nan
field sum 2
field sqrsum 4
field min 2
field max 2
attr interpolationmode  sample-hold
attr title  "channel no, histogram"
bin	-INF	0
bin	1	0
bin	2	1
bin	3	0
scalar hierarchical.gw[2].wlan[0].radio 	bitrate:min 	11000000
attr interpolationmode  sample-hold
attr title  "tx bitrate, min"
attr unit  bps
scalar hierarchical.gw[2].wlan[0].radio 	bitrate:max 	11000000
attr interpolationmode  sample-hold
attr title  "tx bitrate, max"
attr unit  bps
scalar hierarchical.gw[2].wlan[0].radio 	bitrate:timeavg 	11000000
attr interpolationmode  sample-hold
attr title  "tx bitrate, timeavg"
attr unit  bps
scalar hierarchical.gw[2].wlan[0].radio 	radioState:count 	1575
attr interpolationmode  sample-hold
attr title  "radio state (enum), count"
scalar hierarchical.gw[2].wlan[1].mgmt 	dataQueueLen:max 	6
attr interpolationmode  sample-hold
attr title  "data queue length, max"
scalar hierarchical.gw[2].wlan[1].mgmt 	dataQueueLen:timeavg 	0.00033054369777778
attr interpolationmode  sample-hold
attr title  "data queue length, timeavg"
scalar hierarchical.gw[2].wlan[1].mgmt 	dropPkByQueue:count 	0
attr interpolationmode  none
attr source  dropPkByQueue
attr title  "packets dropped by queue, count"
scalar hierarchical.gw[2].wlan[1].mgmt 	dropPkByQueue:sum(packetBytes) 	0
attr interpolationmode  none
attr source  dropPkByQueue
attr title  "packets dropped by queue, sum(packetBytes)"
scalar hierarchical.gw[2].wlan[1].mac 	"number of received packets" 	1439
scalar hierarchical.gw[2].wlan[1].mac 	"number of collisions" 	353
scalar hierarchical.gw[2].wlan[1].mac 	"number of internal collisions" 	0
scalar hierarchical.gw[2].wlan[1].mac 	"number of retry for AC 0" 	315
scalar hierarchical.gw[2].wlan[1].mac 	"sent and received bits" 	2545284
scalar hierarchical.gw[2].wlan[1].mac 	"sent packet within AC 0" 	1473
scalar hierarchical.gw[2].wlan[1].mac 	"sent in TXOP " 	0
scalar hierarchical.gw[2].wlan[1].mac 	"sentWithoutRetry AC 0" 	1327
scalar hierarchical.gw[2].wlan[1].mac 	"numGivenUp AC 0" 	0
scalar hierarchical.gw[2].wlan[1].mac 	"numDropped AC 0" 	0
scalar hierarchical.gw[2].wlan[1].mac 	rcvdPkFromHL:count 	2797
attr interpolationmode  none
attr source  packetReceivedFromUpper
attr title  "packets received from higher layer, count"
scalar hierarchical.gw[2].wlan[1].mac 	rcvdPkFromHL:sum(packetBytes) 	318276
attr interpolationmode  none
attr source  packetReceivedFromUpper
attr title  "packets received from higher layer, sum(packetBytes)"
scalar hierarchical.gw[2].wlan[1].mac 	passedUpPk:count 	4070
attr interpolationmode  none
attr source  packetSentToUpper
attr title  "packets passed to higher layer, count"
scalar hierarchical.gw[2].wlan[1].mac 	passedUpPk:sum(packetBytes) 	458977
attr interpolationmode  none
attr source  packetSentToUpper
attr title  "packets passed to higher layer, sum(packetBytes)"
scalar hierarchical.gw[2].wlan[1].mac 	rcvdPkFromLL:count 	8596
attr interpolationmode  none
attr source  packetReceivedFromLower
attr title  "packets received from lower layer, count"
scalar hierarchical.gw[2].wlan[1].mac 	rcvdPkFromLL:sum(packetBytes) 	702303
attr interpolationmode  none
attr source  packetReceivedFromLower
attr title  "packets received from lower layer, sum(packetBytes)"
scalar hierarchical.gw[2].wlan[1].mac 	sentDownPk:count 	4551
attr interpolationmode  none
attr source  packetSentToLower
attr title  "packets sent to lower layer, count"
scalar hierarchical.gw[2].wlan[1].mac 	sentDownPk:sum(packetBytes) 	378227
attr interpolationmode  none
attr source  packetSentToLower
attr title  "packets sent to lower layer, sum(packetBytes)"
scalar hierarchical.gw[2].wlan[1].radio 	lossRate:min 	0
attr interpolationmode  backward-sample-hold
attr title  "packet loss rate, min"
scalar hierarchical.gw[2].wlan[1].radio 	lossRate:max 	0.3
attr interpolationmode  backward-sample-hold
attr title  "packet loss rate, max"
scalar hierarchical.gw[2].wlan[1].radio 	lossRate:timeavg 	0.028730345990952
attr interpolationmode  backward-sample-hold
attr title  "packet loss rate, timeavg"
statistic hierarchical.gw[2].wlan[1].radio 	channelNo:histogram
field count 1
field mean 5
field stddev -nan
field sum 5
field sqrsum 25
field min 5
field max 5
attr interpolationmode  sample-hold
attr title  "channel no, histogram"
bin	-INF	0
bin	4	0
bin	5	1
bin	6	0
scalar hierarchical.gw[2].wlan[1].radio 	bitrate:min 	11000000
attr interpolationmode  sample-hold
attr title  "tx bitrate, min"
attr unit  bps
scalar hierarchical.gw[2].wlan[1].radio 	bitrate:max 	11000000
attr interpolationmode  sample-hold
attr title  "tx bitrate, max"
attr unit  bps
scalar hierarchical.gw[2].wlan[1].radio 	bitrate:timeavg 	11000000
attr interpolationmode  sample-hold
attr title  "tx bitrate, timeavg"
attr unit  bps
scalar hierarchical.gw[2].wlan[1].radio 	radioState:count 	26420
attr interpolationmode  sample-hold
attr title  "radio state (enum), count"
scalar hierarchical.gw[2].manetrouting 	OLSR_HNA_Messages_(Forwarded) 	0
scalar hierarchical.gw[2].manetrouting 	OLSR_TC_Messages_(Forwarded) 	0
scalar hierarchical.gw[2].manetrouting 	OLSR_Total_HELLO 	517
scalar hierarchical.gw[2].manetrouting 	OLSR_Total_HNA_(originated) 	190
scalar hierarchical.gw[2].manetrouting 	OLSR_Total_TC 	0
scalar hierarchical.gw[2].manetrouting 	OLSR_Total_Messages_Sent 	707
scalar hierarchical.gw[2].backbonemanetrouting 	OLSR_HNA_Messages_(Forwarded) 	0
scalar hierarchical.gw[2].backbonemanetrouting 	OLSR_TC_Messages_(Forwarded) 	373
scalar hierarchical.gw[2].backbonemanetrouting 	OLSR_Total_HELLO 	510
scalar hierarchical.gw[2].backbonemanetrouting 	OLSR_Total_HNA_(originated) 	0
scalar hierarchical.gw[2].backbonemanetrouting 	OLSR_Total_TC 	188
scalar hierarchical.gw[2].backbonemanetrouting 	OLSR_Total_Messages_Sent 	1071
scalar hierarchical.gw[2].udp 	droppedPkBadChecksum:count 	0
attr interpolationmode  none
attr title  "packets dropped (checksum error), count"
scalar hierarchical.gw[2].udp 	droppedPkWrongPort:count 	0
attr interpolationmode  none
attr title  "packets dropped (wrong port), count"
scalar hierarchical.gw[2].udp 	passedUpPk:count 	643
attr interpolationmode  none
attr title  "packets passed up, count"
scalar hierarchical.gw[2].udp 	rcvdPk:count 	643
attr interpolationmode  none
attr source  rcvdPk
attr title  "packets received, count"
scalar hierarchical.gw[2].udp 	rcvdPk:sum(packetBytes) 	37450
attr interpolationmode  none
attr source  rcvdPk
attr title  "packets received, sum(packetBytes)"
scalar hierarchical.gw[2].udp 	sentPk:count 	674
attr interpolationmode  none
attr source  sentPk
attr title  "packets sent, count"
scalar hierarchical.gw[2].udp 	sentPk:sum(packetBytes) 	38032
attr interpolationmode  none
attr source  sentPk
attr title  "packets sent, sum(packetBytes)"
scalar hierarchical.gw[3].networkLayer.arp 	failedARPResolution:count 	0
attr title  "ARP failed resolutions, count"
scalar hierarchical.gw[3].networkLayer.arp 	completedARPResolution:count 	18
attr title  "ARP completed resolutions, count"
scalar hierarchical.gw[3].networkLayer.arp 	initiatedARPResolution:count 	10
attr title  "ARP initiated resolutions, count"
scalar hierarchical.gw[3].networkLayer.arp 	sentReply:count 	6
attr title  "ARP replies sent, count"
scalar hierarchical.gw[3].networkLayer.arp 	sentReq:count 	10
attr title  "ARP request sent, count"
scalar hierarchical.gw[3].lo0.lo 	droppedPkBitError:count 	0
attr interpolationmode  none
attr source  dropPkBitError
attr title  "packets dropped/bit error, count"
scalar hierarchical.gw[3].lo0.lo 	droppedPkBitError:sum(packetBytes) 	0
attr interpolationmode  none
attr source  dropPkBitError
attr title  "packets dropped/bit error, sum(packetBytes)"
scalar hierarchical.gw[3].lo0.lo 	rcvdPkFromHL:count 	3
attr interpolationmode  none
attr source  packetReceivedFromUpper
attr title  "packets received from higher layer, count"
scalar hierarchical.gw[3].lo0.lo 	rcvdPkFromHL:sum(packetBytes) 	168
attr interpolationmode  none
attr source  packetReceivedFromUpper
attr title  "packets received from higher layer, sum(packetBytes)"
scalar hierarchical.gw[3].lo0.lo 	passedUpPk:count 	3
attr interpolationmode  none
attr source  packetSentToUpper
attr title  "packets passed to higher layer, count"
scalar hierarchical.gw[3].lo0.lo 	passedUpPk:sum(packetBytes) 	168
attr interpolationmode  none
attr source  packetSentToUpper
attr title  "packets passed to higher layer, sum(packetBytes)"
scalar hierarchical.gw[3].wlan[0].mgmt 	dataQueueLen:max 	0
attr interpolationmode  sample-hold
attr title  "data queue length, max"
scalar hierarchical.gw[3].wlan[0].mgmt 	dataQueueLen:timeavg 	0
attr interpolationmode  sample-hold
attr title  "data queue length, timeavg"
scalar hierarchical.gw[3].wlan[0].mgmt 	dropPkByQueue:count 	0
attr interpolationmode  none
attr source  dropPkByQueue
attr title  "packets dropped by queue, count"
scalar hierarchical.gw[3].wlan[0].mgmt 	dropPkByQueue:sum(packetBytes) 	0
attr interpolationmode  none
attr source  dropPkByQueue
attr title  "packets dropped by queue, sum(packetBytes)"
scalar hierarchical.gw[3].wlan[0].mac 	"number of received packets" 	0
scalar hierarchical.gw[3].wlan[0].mac 	"number of collisions" 	0
scalar hierarchical.gw[3].wlan[0].mac 	"number of internal collisions" 	0
scalar hierarchical.gw[3].wlan[0].mac 	"number of retry for AC 0" 	0
scalar hierarchical.gw[3].wlan[0].mac 	"sent and received bits" 	572384
scalar hierarchical.gw[3].wlan[0].mac 	"sent packet within AC 0" 	0
scalar hierarchical.gw[3].wlan[0].mac 	"sent in TXOP " 	0
scalar hierarchical.gw[3].wlan[0].mac 	"sentWithoutRetry AC 0" 	0
scalar hierarchical.gw[3].wlan[0].mac 	"numGivenUp AC 0" 	0
scalar hierarchical.gw[3].wlan[0].mac 	"numDropped AC 0" 	0
scalar hierarchical.gw[3].wlan[0].mac 	rcvdPkFromHL:count 	764
attr interpolationmode  none
attr source  packetReceivedFromUpper
attr title  "packets received from higher layer, count"
scalar hierarchical.gw[3].wlan[0].mac 	rcvdPkFromHL:sum(packetBytes) 	71548
attr interpolationmode  none
attr source  packetReceivedFromUpper
attr title  "packets received from higher layer, sum(packetBytes)"
scalar hierarchical.gw[3].wlan[0].mac 	passedUpPk:count 	0
attr interpolationmode  none
attr source  packetSentToUpper
attr title  "packets passed to higher layer, count"
scalar hierarchical.gw[3].wlan[0].mac 	passedUpPk:sum(packetBytes) 	0
attr interpolationmode  none
attr source  packetSentToUpper
attr title  "packets passed to higher layer, sum(packetBytes)"
scalar hierarchical.gw[3].wlan[0].mac 	rcvdPkFromLL:count 	0
attr interpolationmode  none
attr source  packetReceivedFromLower
attr title  "packets received from lower layer, count"
scalar hierarchical.gw[3].wlan[0].mac 	rcvdPkFromLL:sum(packetBytes) 	0
attr interpolationmode  none
attr source  packetReceivedFromLower
attr title  "packets received from lower layer, sum(packetBytes)"
scalar hierarchical.gw[3].wlan[0].mac 	sentDownPk:count 	764
attr interpolationmode  none
attr source  packetSentToLower
attr title  "packets sent to lower layer, count"
scalar hierarchical.gw[3].wlan[0].mac 	sentDownPk:sum(packetBytes) 	71548
attr interpolationmode  none
attr source  packetSentToLower
attr title  "packets sent to lower layer, sum(packetBytes)"
scalar hierarchical.gw[3].wlan[0].radio 	lossRate:min 	-nan
attr interpolationmode  backward-sample-hold
attr title  "packet loss rate, min"
scalar hierarchical.gw[3].wlan[0].radio 	lossRate:max 	-nan
attr interpolationmode  backward-sample-hold
attr title  "packet loss rate, max"
scalar hierarchical.gw[3].wlan[0].radio 	lossRate:timeavg 	-nan
attr interpolationmode  backward-sample-hold
attr title  "packet loss rate, timeavg"
statistic hierarchical.gw[3].wlan[0].radio 	channelNo:histogram
field count 1
field mean 3
field stddev -nan
field sum 3
field sqrsum 9
field min 3
field max 3
attr interpolationmode  sample-hold
attr title  "channel no, histogram"
bin	-INF	0
bin	2	0
bin	3	1
bin	4	0
scalar hierarchical.gw[3].wlan[0].radio 	bitrate:min 	11000000
attr interpolationmode  sample-hold
attr title  "tx bitrate, min"
attr unit  bps
scalar hierarchical.gw[3].wlan[0].radio 	bitrate:max 	11000000
attr interpolationmode  sample-hold
attr title  "tx bitrate, max"
attr unit  bps
scalar hierarchical.gw[3].wlan[0].radio 	bitrate:timeavg 	11000000
attr interpolationmode  sample-hold
attr title  "tx bitrate, timeavg"
attr unit  bps
scalar hierarchical.gw[3].wlan[0].radio 	radioState:count 	1529
attr interpolationmode  sample-hold
attr title  "radio state (enum), count"
scalar hierarchical.gw[3].wlan[1].mgmt 	dataQueueLen:max 	6
attr interpolationmode  sample-hold
attr title  "data queue length, max"
scalar hierarchical.gw[3].wlan[1].mgmt 	dataQueueLen:timeavg 	0.00019894888888889
attr interpolationmode  sample-hold
attr title  "data queue length, timeavg"
scalar hierarchical.gw[3].wlan[1].mgmt 	dropPkByQueue:count 	0
attr interpolationmode  none
attr source  dropPkByQueue
attr title  "packets dropped by queue, count"
scalar hierarchical.gw[3].wlan[1].mgmt 	dropPkByQueue:sum(packetBytes) 	0
attr interpolationmode  none
attr source  dropPkByQueue
attr title  "packets dropped by queue, sum(packetBytes)"
scalar hierarchical.gw[3].wlan[1].mac 	"number of received packets" 	1442
scalar hierarchical.gw[3].wlan[1].mac 	"number of collisions" 	390
scalar hierarchical.gw[3].wlan[1].mac 	"number of internal collisions" 	0
scalar hierarchical.gw[3].wlan[1].mac 	"number of retry for AC 0" 	123
scalar hierarchical.gw[3].wlan[1].mac 	"sent and received bits" 	2515266
scalar hierarchical.gw[3].wlan[1].mac 	"sent packet within AC 0" 	1442
scalar hierarchical.gw[3].wlan[1].mac 	"sent in TXOP " 	0
scalar hierarchical.gw[3].wlan[1].mac 	"sentWithoutRetry AC 0" 	1379
scalar hierarchical.gw[3].wlan[1].mac 	"numGivenUp AC 0" 	0
scalar hierarchical.gw[3].wlan[1].mac 	"numDropped AC 0" 	0
scalar hierarchical.gw[3].wlan[1].mac 	rcvdPkFromHL:count 	2744
attr interpolationmode  none
attr source  packetReceivedFromUpper
attr title  "packets received from higher layer, count"
scalar hierarchical.gw[3].wlan[1].mac 	rcvdPkFromHL:sum(packetBytes) 	314522
attr interpolationmode  none
attr source  packetReceivedFromUpper
attr title  "packets received from higher layer, sum(packetBytes)"
scalar hierarchical.gw[3].wlan[1].mac 	passedUpPk:count 	3416
attr interpolationmode  none
attr source  packetSentToUpper
attr title  "packets passed to higher layer, count"
scalar hierarchical.gw[3].wlan[1].mac 	passedUpPk:sum(packetBytes) 	378973
attr interpolationmode  none
attr source  packetSentToUpper
attr title  "packets passed to higher layer, sum(packetBytes)"
scalar hierarchical.gw[3].wlan[1].mac 	rcvdPkFromLL:count 	6780
attr interpolationmode  none
attr source  packetReceivedFromLower
attr title  "packets received from lower layer, count"
scalar hierarchical.gw[3].wlan[1].mac 	rcvdPkFromLL:sum(packetBytes) 	556125
attr interpolationmode  none
attr source  packetReceivedFromLower
attr title  "packets received from lower layer, sum(packetBytes)"
scalar hierarchical.gw[3].wlan[1].mac 	sentDownPk:count 	4309
attr interpolationmode  none
attr source  packetSentToLower
attr title  "packets sent to lower layer, count"
scalar hierarchical.gw[3].wlan[1].mac 	sentDownPk:sum(packetBytes) 	352649
attr interpolationmode  none
attr source  packetSentToLower
attr title  "packets sent to lower layer, sum(packetBytes)"
scalar hierarchical.gw[3].wlan[1].radio 	lossRate:min 	0
attr interpolationmode  backward-sample-hold
attr title  "packet loss rate, min"
scalar hierarchical.gw[3].wlan[1].radio 	lossRate:max 	0.3
attr interpolationmode  backward-sample-hold
attr title  "packet loss rate, max"
scalar hierarchical.gw[3].wlan[1].radio 	lossRate:timeavg 	0.042972563662978
attr interpolationmode  backward-sample-hold
attr title  "packet loss rate, timeavg"
statistic hierarchical.gw[3].wlan[1].radio 	channelNo:histogram
field count 1
field mean 5
field stddev -nan
field sum 5
field sqrsum 25
field min 5
field max 5
attr interpolationmode  sample-hold
attr title  "channel no, histogram"
bin	-INF	0
bin	4	0
bin	5	1
bin	6	0
scalar hierarchical.gw[3].wlan[1].radio 	bitrate:min 	11000000
attr interpolationmode  sample-hold
attr title  "tx bitrate, min"
attr unit  bps
scalar hierarchical.gw[3].wlan[1].radio 	bitrate:max 	11000000
attr interpolationmode  sample-hold
attr title  "tx bitrate, max"
attr unit  bps
scalar hierarchical.gw[3].wlan[1].radio 	bitrate:timeavg 	11000000
attr interpolationmode  sample-hold
attr title  "tx bitrate, timeavg"
attr unit  bps
scalar hierarchical.gw[3].wlan[1].radio 	radioState:count 	22168
attr interpolationmode  sample-hold
attr title  "radio state (enum), count"
scalar hierarchical.gw[3].manetrouting 	OLSR_HNA_Messages_(Forwarded) 	0
scalar hierarchical.gw[3].manetrouting 	OLSR_TC_Messages_(Forwarded) 	0
scalar hierarchical.gw[3].manetrouting 	OLSR_Total_HELLO 	513
scalar hierarchical.gw[3].manetrouting 	OLSR_Total_HNA_(originated) 	189
scalar hierarchical.gw[3].manetrouting 	OLSR_Total_TC 	0
scalar hierarchical.gw[3].manetrouting 	OLSR_Total_Messages_Sent 	702
scalar hierarchical.gw[3].backbonemanetrouting 	OLSR_HNA_Messages_(Forwarded) 	0
scalar hierarchical.gw[3].backbonemanetrouting 	OLSR_TC_Messages_(Forwarded) 	371
scalar hierarchical.gw[3].backbonemanetrouting 	OLSR_Total_HELLO 	514
scalar hierarchical.gw[3].backbonemanetrouting 	OLSR_Total_HNA_(originated) 	0
scalar hierarchical.gw[3].backbonemanetrouting 	OLSR_Total_TC 	189
scalar hierarchical.gw[3].backbonemanetrouting 	OLSR_Total_Messages_Sent 	1074
scalar hierarchical.gw[3].udp 	droppedPkBadChecksum:count 	0
attr interpolationmode  none
attr title  "packets dropped (checksum error), count"
scalar hierarchical.gw[3].udp 	droppedPkWrongPort:count 	0
attr interpolationmode  none
attr title  "packets dropped (wrong port), count"
scalar hierarchical.gw[3].udp 	passedUpPk:count 	604
attr interpolationmode  none
attr title  "packets passed up, count"
scalar hierarchical.gw[3].udp 	rcvdPk:count 	604
attr interpolationmode  none
attr source  rcvdPk
attr title  "packets received, count"
scalar hierarchical.gw[3].udp 	rcvdPk:sum(packetBytes) 	34525
attr interpolationmode  none
attr source  rcvdPk
attr title  "packets received, sum(packetBytes)"
scalar hierarchical.gw[3].udp 	sentPk:count 	642
attr interpolationmode  none
attr source  sentPk
attr title  "packets sent, count"
scalar hierarchical.gw[3].udp 	sentPk:sum(packetBytes) 	35221
attr interpolationmode  none
attr source  sentPk
attr title  "packets sent, sum(packetBytes)"
scalar hierarchical.gw[4].networkLayer.arp 	failedARPResolution:count 	0
attr title  "ARP failed resolutions, count"
scalar hierarchical.gw[4].networkLayer.arp 	completedARPResolution:count 	12
attr title  "ARP completed resolutions, count"
scalar hierarchical.gw[4].networkLayer.arp 	initiatedARPResolution:count 	3
attr title  "ARP initiated resolutions, count"
scalar hierarchical.gw[4].networkLayer.arp 	sentReply:count 	5
attr title  "ARP replies sent, count"
scalar hierarchical.gw[4].networkLayer.arp 	sentReq:count 	3
attr title  "ARP request sent, count"
scalar hierarchical.gw[4].lo0.lo 	droppedPkBitError:count 	0
attr interpolationmode  none
attr source  dropPkBitError
attr title  "packets dropped/bit error, count"
scalar hierarchical.gw[4].lo0.lo 	droppedPkBitError:sum(packetBytes) 	0
attr interpolationmode  none
attr source  dropPkBitError
attr title  "packets dropped/bit error, sum(packetBytes)"
scalar hierarchical.gw[4].lo0.lo 	rcvdPkFromHL:count 	15
attr interpolationmode  none
attr source  packetReceivedFromUpper
attr title  "packets received from higher layer, count"
scalar hierarchical.gw[4].lo0.lo 	rcvdPkFromHL:sum(packetBytes) 	1329
attr interpolationmode  none
attr source  packetReceivedFromUpper
attr title  "packets received from higher layer, sum(packetBytes)"
scalar hierarchical.gw[4].lo0.lo 	passedUpPk:count 	15
attr interpolationmode  none
attr source  packetSentToUpper
attr title  "packets passed to higher layer, count"
scalar hierarchical.gw[4].lo0.lo 	passedUpPk:sum(packetBytes) 	1329
attr interpolationmode  none
attr source  packetSentToUpper
attr title  "packets passed to higher layer, sum(packetBytes)"
scalar hierarchical.gw[4].wlan[0].mgmt 	dataQueueLen:max 	0
attr interpolationmode  sample-hold
attr title  "data queue length, max"
scalar hierarchical.gw[4].wlan[0].mgmt 	dataQueueLen:timeavg 	0
attr interpolationmode  sample-hold
attr title  "data queue length, timeavg"
scalar hierarchical.gw[4].wlan[0].mgmt 	dropPkByQueue:count 	0
attr interpolationmode  none
attr source  dropPkByQueue
attr title  "packets dropped by queue, count"
scalar hierarchical.gw[4].wlan[0].mgmt 	dropPkByQueue:sum(packetBytes) 	0
attr interpolationmode  none
attr source  dropPkByQueue
attr title  "packets dropped by queue, sum(packetBytes)"
scalar hierarchical.gw[4].wlan[0].mac 	"number of received packets" 	0
scalar hierarchical.gw[4].wlan[0].mac 	"number of collisions" 	48
scalar hierarchical.gw[4].wlan[0].mac 	"number of internal collisions" 	0
scalar hierarchical.gw[4].wlan[0].mac 	"number of retry for AC 0" 	0
scalar hierarchical.gw[4].wlan[0].mac 	"sent and received bits" 	1827168
scalar hierarchical.gw[4].wlan[0].mac 	"sent packet within AC 0" 	0
scalar hierarchical.gw[4].wlan[0].mac 	"sent in TXOP " 	0
scalar hierarchical.gw[4].wlan[0].mac 	"sentWithoutRetry AC 0" 	0
scalar hierarchical.gw[4].wlan[0].mac 	"numGivenUp AC 0" 	0
scalar hierarchical.gw[4].wlan[0].mac 	"numDropped AC 0" 	0
scalar hierarchical.gw[4].wlan[0].mac 	rcvdPkFromHL:count 	1894
attr interpolationmode  none
attr source  packetReceivedFromUpper
attr title  "packets received from higher layer, count"
scalar hierarchical.gw[4].wlan[0].mac 	rcvdPkFromHL:sum(packetBytes) 	228396
attr interpolationmode  none
attr source  packetReceivedFromUpper
attr title  "packets received from higher layer, sum(packetBytes)"
scalar hierarchical.gw[4].wlan[0].mac 	passedUpPk:count 	9024
attr interpolationmode  none
attr source  packetSentToUpper
attr title  "packets passed to higher layer, count"
scalar hierarchical.gw[4].wlan[0].mac 	passedUpPk:sum(packetBytes) 	1011572
attr interpolationmode  none
attr source  packetSentToUpper
attr title  "packets passed to higher layer, sum(packetBytes)"
scalar hierarchical.gw[4].wlan[0].mac 	rcvdPkFromLL:count 	9072
attr interpolationmode  none
attr source  packetReceivedFromLower
attr title  "packets received from lower layer, count"
scalar hierarchical.gw[4].wlan[0].mac 	rcvdPkFromLL:sum(packetBytes) 	1017116
attr interpolationmode  none
attr source  packetReceivedFromLower
attr title  "packets received from lower layer, sum(packetBytes)"
scalar hierarchical.gw[4].wlan[0].mac 	sentDownPk:count 	1894
attr interpolationmode  none
attr source  packetSentToLower
attr title  "packets sent to lower layer, count"
scalar hierarchical.gw[4].wlan[0].mac 	sentDownPk:sum(packetBytes) 	228396
attr interpolationmode  none
attr source  packetSentToLower
attr title  "packets sent to lower layer, sum(packetBytes)"
scalar hierarchical.gw[4].wlan[0].radio 	lossRate:min 	0
attr interpolationmode  backward-sample-hold
attr title  "packet loss rate, min"
scalar hierarchical.gw[4].wlan[0].radio 	lossRate:max 	0.04
attr interpolationmode  backward-sample-hold
attr title  "packet loss rate, max"
scalar hierarchical.gw[4].wlan[0].radio 	lossRate:timeavg 	0.00514520448412
attr interpolationmode  backward-sample-hold
attr title  "packet loss rate, timeavg"
statistic hierarchical.gw[4].wlan[0].radio 	channelNo:histogram
field count 1
field mean 4
field stddev -nan
field sum 4
field sqrsum 16
field min 4
field max 4
attr interpolationmode  sample-hold
attr title  "channel no, histogram"
bin	-INF	0
bin	3	0
bin	4	1
bin	5	0
scalar hierarchical.gw[4].wlan[0].radio 	bitrate:min 	11000000
attr interpolationmode  sample-hold
attr title  "tx bitrate, min"
attr unit  bps
scalar hierarchical.gw[4].wlan[0].radio 	bitrate:max 	11000000
attr interpolationmode  sample-hold
attr title  "tx bitrate, max"
attr unit  bps
scalar hierarchical.gw[4].wlan[0].radio 	bitrate:timeavg 	11000000
attr interpolationmode  sample-hold
attr title  "tx bitrate, timeavg"
attr unit  bps
scalar hierarchical.gw[4].wlan[0].radio 	radioState:count 	21935
attr interpolationmode  sample-hold
attr title  "radio state (enum), count"
scalar hierarchical.gw[4].wlan[1].mgmt 	dataQueueLen:max 	2
attr interpolationmode  sample-hold
attr title  "data queue length, max"
scalar hierarchical.gw[4].wlan[1].mgmt 	dataQueueLen:timeavg 	0.00013618146777778
attr interpolationmode  sample-hold
attr title  "data queue length, timeavg"
scalar hierarchical.gw[4].wlan[1].mgmt 	dropPkByQueue:count 	0
attr interpolationmode  none
attr source  dropPkByQueue
attr title  "packets dropped by queue, count"
scalar hierarchical.gw[4].wlan[1].mgmt 	dropPkByQueue:sum(packetBytes) 	0
attr interpolationmode  none
attr source  dropPkByQueue
attr title  "packets dropped by queue, sum(packetBytes)"
scalar hierarchical.gw[4].wlan[1].mac 	"number of received packets" 	728
scalar hierarchical.gw[4].wlan[1].mac 	"number of collisions" 	7
scalar hierarchical.gw[4].wlan[1].mac 	"number of internal collisions" 	0
scalar hierarchical.gw[4].wlan[1].mac 	"number of retry for AC 0" 	366
scalar hierarchical.gw[4].wlan[1].mac 	"sent and received bits" 	1181827
scalar hierarchical.gw[4].wlan[1].mac 	"sent packet within AC 0" 	693
scalar hierarchical.gw[4].wlan[1].mac 	"sent in TXOP " 	0
scalar hierarchical.gw[4].wlan[1].mac 	"sentWithoutRetry AC 0" 	583
scalar hierarchical.gw[4].wlan[1].mac 	"numGivenUp AC 0" 	2
scalar hierarchical.gw[4].wlan[1].mac 	"numDropped AC 0" 	0
scalar hierarchical.gw[4].wlan[1].mac 	rcvdPkFromHL:count 	1348
attr interpolationmode  none
attr source  packetReceivedFromUpper
attr title  "packets received from higher layer, count"
scalar hierarchical.gw[4].wlan[1].mac 	rcvdPkFromHL:sum(packetBytes) 	148062
attr interpolationmode  none
attr source  packetReceivedFromUpper
attr title  "packets received from higher layer, sum(packetBytes)"
scalar hierarchical.gw[4].wlan[1].mac 	passedUpPk:count 	2030
attr interpolationmode  none
attr source  packetSentToUpper
attr title  "packets passed to higher layer, count"
scalar hierarchical.gw[4].wlan[1].mac 	passedUpPk:sum(packetBytes) 	228332
attr interpolationmode  none
attr source  packetSentToUpper
attr title  "packets passed to higher layer, sum(packetBytes)"
scalar hierarchical.gw[4].wlan[1].mac 	rcvdPkFromLL:count 	4299
attr interpolationmode  none
attr source  packetReceivedFromLower
attr title  "packets received from lower layer, count"
scalar hierarchical.gw[4].wlan[1].mac 	rcvdPkFromLL:sum(packetBytes) 	351471
attr interpolationmode  none
attr source  packetReceivedFromLower
attr title  "packets received from lower layer, sum(packetBytes)"
scalar hierarchical.gw[4].wlan[1].mac 	sentDownPk:count 	2442
attr interpolationmode  none
attr source  packetSentToLower
attr title  "packets sent to lower layer, count"
scalar hierarchical.gw[4].wlan[1].mac 	sentDownPk:sum(packetBytes) 	204968
attr interpolationmode  none
attr source  packetSentToLower
attr title  "packets sent to lower layer, sum(packetBytes)"
scalar hierarchical.gw[4].wlan[1].radio 	lossRate:min 	0
attr interpolationmode  backward-sample-hold
attr title  "packet loss rate, min"
scalar hierarchical.gw[4].wlan[1].radio 	lossRate:max 	0.02
attr interpolationmode  backward-sample-hold
attr title  "packet loss rate, max"
scalar hierarchical.gw[4].wlan[1].radio 	lossRate:timeavg 	0.00073134790837689
attr interpolationmode  backward-sample-hold
attr title  "packet loss rate, timeavg"
statistic hierarchical.gw[4].wlan[1].radio 	channelNo:histogram
field count 1
field mean 5
field stddev -nan
field sum 5
field sqrsum 25
field min 5
field max 5
attr interpolationmode  sample-hold
attr title  "channel no, histogram"
bin	-INF	0
bin	4	0
bin	5	1
bin	6	0
scalar hierarchical.gw[4].wlan[1].radio 	bitrate:min 	11000000
attr interpolationmode  sample-hold
attr title  "tx bitrate, min"
attr unit  bps
scalar hierarchical.gw[4].wlan[1].radio 	bitrate:max 	11000000
attr interpolationmode  sample-hold
attr title  "tx bitrate, max"
attr unit  bps
scalar hierarchical.gw[4].wlan[1].radio 	bitrate:timeavg 	11000000
attr interpolationmode  sample-hold
attr title  "tx bitrate, timeavg"
attr unit  bps
scalar hierarchical.gw[4].wlan[1].radio 	radioState:count 	13499
attr interpolationmode  sample-hold
attr title  "radio state (enum), count"
scalar hierarchical.gw[4].manetrouting 	OLSR_HNA_Messages_(Forwarded) 	0
scalar hierarchical.gw[4].manetrouting 	OLSR_TC_Messages_(Forwarded) 	556
scalar hierarchical.gw[4].manetrouting 	OLSR_Total_HELLO 	514
scalar hierarchical.gw[4].manetrouting 	OLSR_Total_HNA_(originated) 	189
scalar hierarchical.gw[4].manetrouting 	OLSR_Total_TC 	188
scalar hierarchical.gw[4].manetrouting 	OLSR_Total_Messages_Sent 	1447
scalar hierarchical.gw[4].backbonemanetrouting 	OLSR_HNA_Messages_(Forwarded) 	0
scalar hierarchical.gw[4].backbonemanetrouting 	OLSR_TC_Messages_(Forwarded) 	557
scalar hierarchical.gw[4].backbonemanetrouting 	OLSR_Total_HELLO 	516
scalar hierarchical.gw[4].backbonemanetrouting 	OLSR_Total_HNA_(originated) 	0
scalar hierarchical.gw[4].backbonemanetrouting 	OLSR_Total_TC 	0
scalar hierarchical.gw[4].backbonemanetrouting 	OLSR_Total_Messages_Sent 	1073
scalar hierarchical.gw[4].udp 	droppedPkBadChecksum:count 	0
attr interpolationmode  none
attr title  "packets dropped (checksum error), count"
scalar hierarchical.gw[4].udp 	droppedPkWrongPort:count 	0
attr interpolationmode  none
attr title  "packets dropped (wrong port), count"
scalar hierarchical.gw[4].udp 	passedUpPk:count 	695
attr interpolationmode  none
attr title  "packets passed up, count"
scalar hierarchical.gw[4].udp 	rcvdPk:count 	695
attr interpolationmode  none
attr source  rcvdPk
attr title  "packets received, count"
scalar hierarchical.gw[4].udp 	rcvdPk:sum(packetBytes) 	40415
attr interpolationmode  none
attr source  rcvdPk
attr title  "packets received, sum(packetBytes)"
scalar hierarchical.gw[4].udp 	sentPk:count 	705
attr interpolationmode  none
attr source  sentPk
attr title  "packets sent, count"
scalar hierarchical.gw[4].udp 	sentPk:sum(packetBytes) 	42422
attr interpolationmode  none
attr source  sentPk
attr title  "packets sent, sum(packetBytes)"
scalar hierarchical.host[0].networkLayer.arp 	failedARPResolution:count 	0
attr title  "ARP failed resolutions, count"
scalar hierarchical.host[0].networkLayer.arp 	completedARPResolution:count 	0
attr title  "ARP completed resolutions, count"
scalar hierarchical.host[0].networkLayer.arp 	initiatedARPResolution:count 	0
attr title  "ARP initiated resolutions, count"
scalar hierarchical.host[0].networkLayer.arp 	sentReply:count 	0
attr title  "ARP replies sent, count"
scalar hierarchical.host[0].networkLayer.arp 	sentReq:count 	0
attr title  "ARP request sent, count"
scalar hierarchical.host[0].lo0.lo 	droppedPkBitError:count 	0
attr interpolationmode  none
attr source  dropPkBitError
attr title  "packets dropped/bit error, count"
scalar hierarchical.host[0].lo0.lo 	droppedPkBitError:sum(packetBytes) 	0
attr interpolationmode  none
attr source  dropPkBitError
attr title  "packets dropped/bit error, sum(packetBytes)"
scalar hierarchical.host[0].lo0.lo 	rcvdPkFromHL:count 	0
attr interpolationmode  none
attr source  packetReceivedFromUpper
attr title  "packets received from higher layer, count"
scalar hierarchical.host[0].lo0.lo 	rcvdPkFromHL:sum(packetBytes) 	0
attr interpolationmode  none
attr source  packetReceivedFromUpper
attr title  "packets received from higher layer, sum(packetBytes)"
scalar hierarchical.host[0].lo0.lo 	passedUpPk:count 	0
attr interpolationmode  none
attr source  packetSentToUpper
attr title  "packets passed to higher layer, count"
scalar hierarchical.host[0].lo0.lo 	passedUpPk:sum(packetBytes) 	0
attr interpolationmode  none
attr source  packetSentToUpper
attr title  "packets passed to higher layer, sum(packetBytes)"
scalar hierarchical.host[0].wlan[0].mgmt 	dataQueueLen:max 	0
attr interpolationmode  sample-hold
attr title  "data queue length, max"
scalar hierarchical.host[0].wlan[0].mgmt 	dataQueueLen:timeavg 	0
attr interpolationmode  sample-hold
attr title  "data queue length, timeavg"
scalar hierarchical.host[0].wlan[0].mgmt 	dropPkByQueue:count 	0
attr interpolationmode  none
attr source  dropPkByQueue
attr title  "packets dropped by queue, count"
scalar hierarchical.host[0].wlan[0].mgmt 	dropPkByQueue:sum(packetBytes) 	0
attr interpolationmode  none
attr source  dropPkByQueue
attr title  "packets dropped by queue, sum(packetBytes)"
scalar hierarchical.host[0].wlan[0].mac 	"number of received packets" 	0
scalar hierarchical.host[0].wlan[0].mac 	"number of collisions" 	10
scalar hierarchical.host[0].wlan[0].mac 	"number of internal collisions" 	0
scalar hierarchical.host[0].wlan[0].mac 	"number of retry for AC 0" 	0
scalar hierarchical.host[0].wlan[0].mac 	"sent and received bits" 	1624592
scalar hierarchical.host[0].wlan[0].mac 	"sent packet within AC 0" 	0
scalar hierarchical.host[0].wlan[0].mac 	"sent in TXOP " 	0
scalar hierarchical.host[0].wlan[0].mac 	"sentWithoutRetry AC 0" 	0
scalar hierarchical.host[0].wlan[0].mac 	"numGivenUp AC 0" 	0
scalar hierarchical.host[0].wlan[0].mac 	"numDropped AC 0" 	0
scalar hierarchical.host[0].wlan[0].mac 	rcvdPkFromHL:count 	1791
attr interpolationmode  none
attr source  packetReceivedFromUpper
attr title  "packets received from higher layer, count"
scalar hierarchical.host[0].wlan[0].mac 	rcvdPkFromHL:sum(packetBytes) 	203074
attr interpolationmode  none
attr source  packetReceivedFromUpper
attr title  "packets received from higher layer, sum(packetBytes)"
scalar hierarchical.host[0].wlan[0].mac 	passedUpPk:count 	4212
attr interpolationmode  none
attr source  packetSentToUpper
attr title  "packets passed to higher layer, count"
scalar hierarchical.host[0].wlan[0].mac 	passedUpPk:sum(packetBytes) 	494272
attr interpolationmode  none
attr source  packetSentToUpper
attr title  "packets passed to higher layer, sum(packetBytes)"
scalar hierarchical.host[0].wlan[0].mac 	rcvdPkFromLL:count 	4222
attr interpolationmode  none
attr source  packetReceivedFromLower
attr title  "packets received from lower layer, count"
scalar hierarchical.host[0].wlan[0].mac 	rcvdPkFromLL:sum(packetBytes) 	495512
attr interpolationmode  none
attr source  packetReceivedFromLower
attr title  "packets received from lower layer, sum(packetBytes)"
scalar hierarchical.host[0].wlan[0].mac 	sentDownPk:count 	1791
attr interpolationmode  none
attr source  packetSentToLower
attr title  "packets sent to lower layer, count"
scalar hierarchical.host[0].wlan[0].mac 	sentDownPk:sum(packetBytes) 	203074
attr interpolationmode  none
attr source  packetSentToLower
attr title  "packets sent to lower layer, sum(packetBytes)"
scalar hierarchical.host[0].wlan[0].radio 	lossRate:min 	0
attr interpolationmode  backward-sample-hold
attr title  "packet loss rate, min"
scalar hierarchical.host[0].wlan[0].radio 	lossRate:max 	0.06
attr interpolationmode  backward-sample-hold
attr title  "packet loss rate, max"
scalar hierarchical.host[0].wlan[0].radio 	lossRate:timeavg 	0.0024104521625312
attr interpolationmode  backward-sample-hold
attr title  "packet loss rate, timeavg"
statistic hierarchical.host[0].wlan[0].radio 	channelNo:histogram
field count 1
field mean 0
field stddev -nan
field sum 0
field sqrsum 0
field min 0
field max 0
attr interpolationmode  sample-hold
attr title  "channel no, histogram"
bin	-INF	0
bin	-0.5	0
bin	-0.46666666666667	0
bin	-0.43333333333333	0
bin	-0.4	0
bin	-0.36666666666667	0
bin	-0.33333333333333	0
bin	-0.3	0
bin	-0.26666666666667	0
bin	-0.23333333333333	0
bin	-0.2	0
bin	-0.16666666666667	0
bin	-0.13333333333333	0
bin	-0.1	0
bin	-0.066666666666667	0
bin	-0.033333333333333	0
bin	0	1
bin	0.033333333333333	0
bin	0.066666666666667	0
bin	0.1	0
bin	0.13333333333333	0
bin	0.16666666666667	0
bin	0.2	0
bin	0.23333333333333	0
bin	0.26666666666667	0
bin	0.3	0
bin	0.33333333333333	0
bin	0.36666666666667	0
bin	0.4	0
bin	0.43333333333333	0
bin	0.46666666666667	0
bin	0.5	0
scalar hierarchical.host[0].wlan[0].radio 	bitrate:min 	11000000
attr interpolationmode  sample-hold
attr title  "tx bitrate, min"
attr unit  bps
scalar hierarchical.host[0].wlan[0].radio 	bitrate:max 	11000000
attr interpolationmode  sample-hold
attr title  "tx bitrate, max"
attr unit  bps
scalar hierarchical.host[0].wlan[0].radio 	bitrate:timeavg 	11000000
attr interpolationmode  sample-hold
attr title  "tx bitrate, timeavg"
attr unit  bps
scalar hierarchical.host[0].wlan[0].radio 	radioState:count 	12033
attr interpolationmode  sample-hold
attr title  "radio state (enum), count"
scalar hierarchical.host[0].udpApp[0] 	"packets sent" 	0
scalar hierarchical.host[0].udpApp[0] 	"packets received" 	0
scalar hierarchical.host[0].udpApp[0] 	rcvdPk:count 	0
attr interpolationmode  none
attr source  rcvdPk
attr title  "packets received, count"
scalar hierarchical.host[0].udpApp[0] 	rcvdPk:sum(packetBytes) 	0
attr interpolationmode  none
attr source  rcvdPk
attr title  "packets received, sum(packetBytes)"
statistic hierarchical.host[0].udpApp[0] 	rcvdPkLifetime:stats
field count 0
field mean -nan
field stddev -nan
field sum 0
field sqrsum 0
field min -nan
field max -nan
attr interpolationmode  none
attr source  messageAge(rcvdPk)
attr title  "received packet lifetime, stats"
attr unit  s
scalar hierarchical.host[0].udpApp[0] 	sentPk:count 	0
attr interpolationmode  none
attr source  sentPk
attr title  "packets sent, count"
scalar hierarchical.host[0].udpApp[0] 	sentPk:sum(packetBytes) 	0
attr interpolationmode  none
attr source  sentPk
attr title  "packets sent, sum(packetBytes)"
scalar hierarchical.host[0].udp 	droppedPkBadChecksum:count 	0
attr interpolationmode  none
attr title  "packets dropped (checksum error), count"
scalar hierarchical.host[0].udp 	droppedPkWrongPort:count 	0
attr interpolationmode  none
attr title  "packets dropped (wrong port), count"
scalar hierarchical.host[0].udp 	passedUpPk:count 	0
attr interpolationmode  none
attr title  "packets passed up, count"
scalar hierarchical.host[0].udp 	rcvdPk:count 	0
attr interpolationmode  none
attr source  rcvdPk
attr title  "packets received, count"
scalar hierarchical.host[0].udp 	rcvdPk:sum(packetBytes) 	0
attr interpolationmode  none
attr source  rcvdPk
attr title  "packets received, sum(packetBytes)"
scalar hierarchical.host[0].udp 	sentPk:count 	0
attr interpolationmode  none
attr source  sentPk
attr title  "packets sent, count"
scalar hierarchical.host[0].udp 	sentPk:sum(packetBytes) 	0
attr interpolationmode  none
attr source  sentPk
attr title  "packets sent, sum(packetBytes)"
scalar hierarchical.host[0].manetrouting 	OLSR_HNA_Messages_(Forwarded) 	189
scalar hierarchical.host[0].manetrouting 	OLSR_TC_Messages_(Forwarded) 	186
scalar hierarchical.host[0].manetrouting 	OLSR_Total_HELLO 	515
scalar hierarchical.host[0].manetrouting 	OLSR_Total_HNA_(originated) 	0
scalar hierarchical.host[0].manetrouting 	OLSR_Total_TC 	189
scalar hierarchical.host[0].manetrouting 	OLSR_Total_Messages_Sent 	1079
scalar hierarchical.host[1].networkLayer.arp 	failedARPResolution:count 	0
attr title  "ARP failed resolutions, count"
scalar hierarchical.host[1].networkLayer.arp 	completedARPResolution:count 	0
attr title  "ARP completed resolutions, count"
scalar hierarchical.host[1].networkLayer.arp 	initiatedARPResolution:count 	0
attr title  "ARP initiated resolutions, count"
scalar hierarchical.host[1].networkLayer.arp 	sentReply:count 	0
attr title  "ARP replies sent, count"
scalar hierarchical.host[1].networkLayer.arp 	sentReq:count 	0
attr title  "ARP request sent, count"
scalar hierarchical.host[1].lo0.lo 	droppedPkBitError:count 	0
attr interpolationmode  none
attr source  dropPkBitError
attr title  "packets dropped/bit error, count"
scalar hierarchical.host[1].lo0.lo 	droppedPkBitError:sum(packetBytes) 	0
attr interpolationmode  none
attr source  dropPkBitError
attr title  "packets dropped/bit error, sum(packetBytes)"
scalar hierarchical.host[1].lo0.lo 	rcvdPkFromHL:count 	0
attr interpolationmode  none
attr source  packetReceivedFromUpper
attr title  "packets received from higher layer, count"
scalar hierarchical.host[1].lo0.lo 	rcvdPkFromHL:sum(packetBytes) 	0
attr interpolationmode  none
attr source  packetReceivedFromUpper
attr title  "packets received from higher layer, sum(packetBytes)"
scalar hierarchical.host[1].lo0.lo 	passedUpPk:count 	0
attr interpolationmode  none
attr source  packetSentToUpper
attr title  "packets passed to higher layer, count"
scalar hierarchical.host[1].lo0.lo 	passedUpPk:sum(packetBytes) 	0
attr interpolationmode  none
attr source  packetSentToUpper
attr title  "packets passed to higher layer, sum(packetBytes)"
scalar hierarchical.host[1].wlan[0].mgmt 	dataQueueLen:max 	0
attr interpolationmode  sample-hold
attr title  "data queue length, max"
scalar hierarchical.host[1].wlan[0].mgmt 	dataQueueLen:timeavg 	0
attr interpolationmode  sample-hold
attr title  "data queue length, timeavg"
scalar hierarchical.host[1].wlan[0].mgmt 	dropPkByQueue:count 	0
attr interpolationmode  none
attr source  dropPkByQueue
attr title  "packets dropped by queue, count"
scalar hierarchical.host[1].wlan[0].mgmt 	dropPkByQueue:sum(packetBytes) 	0
attr interpolationmode  none
attr source  dropPkByQueue
attr title  "packets dropped by queue, sum(packetBytes)"
scalar hierarchical.host[1].wlan[0].mac 	"number of received packets" 	0
scalar hierarchical.host[1].wlan[0].mac 	"number of collisions" 	12
scalar hierarchical.host[1].wlan[0].mac 	"number of internal collisions" 	0
scalar hierarchical.host[1].wlan[0].mac 	"number of retry for AC 0" 	0
scalar hierarchical.host[1].wlan[0].mac 	"sent and received bits" 	609824
scalar hierarchical.host[1].wlan[0].mac 	"sent packet within AC 0" 	0
scalar hierarchical.host[1].wlan[0].mac 	"sent in TXOP " 	0
scalar hierarchical.host[1].wlan[0].mac 	"sentWithoutRetry AC 0" 	0
scalar hierarchical.host[1].wlan[0].mac 	"numGivenUp AC 0" 	0
scalar hierarchical.host[1].wlan[0].mac 	"numDropped AC 0" 	0
scalar hierarchical.host[1].wlan[0].mac 	rcvdPkFromHL:count 	656
attr interpolationmode  none
attr source  packetReceivedFromUpper
attr title  "packets received from higher layer, count"
scalar hierarchical.host[1].wlan[0].mac 	rcvdPkFromHL:sum(packetBytes) 	76228
attr interpolationmode  none
attr source  packetReceivedFromUpper
attr title  "packets received from higher layer, sum(packetBytes)"
scalar hierarchical.host[1].wlan[0].mac 	passedUpPk:count 	5997
attr interpolationmode  none
attr source  packetSentToUpper
attr title  "packets passed to higher layer, count"
scalar hierarchical.host[1].wlan[0].mac 	passedUpPk:sum(packetBytes) 	712974
attr interpolationmode  none
attr source  packetSentToUpper
attr title  "packets passed to higher layer, sum(packetBytes)"
scalar hierarchical.host[1].wlan[0].mac 	rcvdPkFromLL:count 	6009
attr interpolationmode  none
attr source  packetReceivedFromLower
attr title  "packets received from lower layer, count"
scalar hierarchical.host[1].wlan[0].mac 	rcvdPkFromLL:sum(packetBytes) 	714426
attr interpolationmode  none
attr source  packetReceivedFromLower
attr title  "packets received from lower layer, sum(packetBytes)"
scalar hierarchical.host[1].wlan[0].mac 	sentDownPk:count 	656
attr interpolationmode  none
attr source  packetSentToLower
attr title  "packets sent to lower layer, count"
scalar hierarchical.host[1].wlan[0].mac 	sentDownPk:sum(packetBytes) 	76228
attr interpolationmode  none
attr source  packetSentToLower
attr title  "packets sent to lower layer, sum(packetBytes)"
scalar hierarchical.host[1].wlan[0].radio 	lossRate:min 	0
attr interpolationmode  backward-sample-hold
attr title  "packet loss rate, min"
scalar hierarchical.host[1].wlan[0].radio 	lossRate:max 	0.04
attr interpolationmode  backward-sample-hold
attr title  "packet loss rate, max"
scalar hierarchical.host[1].wlan[0].radio 	lossRate:timeavg 	0.0020519120508777
attr interpolationmode  backward-sample-hold
attr title  "packet loss rate, timeavg"
statistic hierarchical.host[1].wlan[0].radio 	channelNo:histogram
field count 1
field mean 0
field stddev -nan
field sum 0
field sqrsum 0
field min 0
field max 0
attr interpolationmode  sample-hold
attr title  "channel no, histogram"
bin	-INF	0
bin	-0.5	0
bin	-0.46666666666667	0
bin	-0.43333333333333	0
bin	-0.4	0
bin	-0.36666666666667	0
bin	-0.33333333333333	0
bin	-0.3	0
bin	-0.26666666666667	0
bin	-0.23333333333333	0
bin	-0.2	0
bin	-0.16666666666667	0
bin	-0.13333333333333	0
bin	-0.1	0
bin	-0.066666666666667	0
bin	-0.033333333333333	0
bin	0	1
bin	0.033333333333333	0
bin	0.066666666666667	0
bin	0.1	0
bin	0.13333333333333	0
bin	0.16666666666667	0
bin	0.2	0
bin	0.23333333333333	0
bin	0.26666666666667	0
bin	0.3	0
bin	0.33333333333333	0
bin	0.36666666666667	0
bin	0.4	0
bin	0.43333333333333	0
bin	0.46666666666667	0
bin	0.5	0
scalar hierarchical.host[1].wlan[0].radio 	bitrate:min 	11000000
attr interpolationmode  sample-hold
attr title  "tx bitrate, min"
attr unit  bps
scalar hierarchical.host[1].wlan[0].radio 	bitrate:max 	11000000
attr interpolationmode  sample-hold
attr title  "tx bitrate, max"
attr unit  bps
scalar hierarchical.host[1].wlan[0].radio 	bitrate:timeavg 	11000000
attr interpolationmode  sample-hold
attr title  "tx bitrate, timeavg"
attr unit  bps
scalar hierarchical.host[1].wlan[0].radio 	radioState:count 	13341
attr interpolationmode  sample-hold
attr title  "radio state (enum), count"
scalar hierarchical.host[1].udpApp[0] 	"packets sent" 	0
scalar hierarchical.host[1].udpApp[0] 	"packets received" 	0
scalar hierarchical.host[1].udpApp[0] 	rcvdPk:count 	0
attr interpolationmode  none
attr source  rcvdPk
attr title  "packets received, count"
scalar hierarchical.host[1].udpApp[0] 	rcvdPk:sum(packetBytes) 	0
attr interpolationmode  none
attr source  rcvdPk
attr title  "packets received, sum(packetBytes)"
statistic hierarchical.host[1].udpApp[0] 	rcvdPkLifetime:stats
field count 0
field mean -nan
field stddev -nan
field sum 0
field sqrsum 0
field min -nan
field max -nan
attr interpolationmode  none
attr source  messageAge(rcvdPk)
attr title  "received packet lifetime, stats"
attr unit  s
scalar hierarchical.host[1].udpApp[0] 	sentPk:count 	0
attr interpolationmode  none
attr source  sentPk
attr title  "packets sent, count"
scalar hierarchical.host[1].udpApp[0] 	sentPk:sum(packetBytes) 	0
attr interpolationmode  none
attr source  sentPk
attr title  "packets sent, sum(packetBytes)"
scalar hierarchical.host[1].udp 	droppedPkBadChecksum:count 	0
attr interpolationmode  none
attr title  "packets dropped (checksum error), count"
scalar hierarchical.host[1].udp 	droppedPkWrongPort:count 	0
attr interpolationmode  none
attr title  "packets dropped (wrong port), count"
scalar hierarchical.host[1].udp 	passedUpPk:count 	0
attr interpolationmode  none
attr title  "packets passed up, count"
scalar hierarchical.host[1].udp 	rcvdPk:count 	0
attr interpolationmode  none
attr source  rcvdPk
attr title  "packets received, count"
scalar hierarchical.host[1].udp 	rcvdPk:sum(packetBytes) 	0
attr interpolationmode  none
attr source  rcvdPk
attr title  "packets received, sum(packetBytes)"
scalar hierarchical.host[1].udp 	sentPk:count 	0
attr interpolationmode  none
attr source  sentPk
attr title  "packets sent, count"
scalar hierarchical.host[1].udp 	sentPk:sum(packetBytes) 	0
attr interpolationmode  none
attr source  sentPk
attr title  "packets sent, sum(packetBytes)"
scalar hierarchical.host[1].manetrouting 	OLSR_HNA_Messages_(Forwarded) 	189
scalar hierarchical.host[1].manetrouting 	OLSR_TC_Messages_(Forwarded) 	374
scalar hierarchical.host[1].manetrouting 	OLSR_Total_HELLO 	514
scalar hierarchical.host[1].manetrouting 	OLSR_Total_HNA_(originated) 	0
scalar hierarchical.host[1].manetrouting 	OLSR_Total_TC 	0
scalar hierarchical.host[1].manetrouting 	OLSR_Total_Messages_Sent 	1077
scalar hierarchical.host[2].networkLayer.arp 	failedARPResolution:count 	0
attr title  "ARP failed resolutions, count"
scalar hierarchical.host[2].networkLayer.arp 	completedARPResolution:count 	0
attr title  "ARP completed resolutions, count"
scalar hierarchical.host[2].networkLayer.arp 	initiatedARPResolution:count 	0
attr title  "ARP initiated resolutions, count"
scalar hierarchical.host[2].networkLayer.arp 	sentReply:count 	0
attr title  "ARP replies sent, count"
scalar hierarchical.host[2].networkLayer.arp 	sentReq:count 	0
attr title  "ARP request sent, count"
scalar hierarchical.host[2].lo0.lo 	droppedPkBitError:count 	0
attr interpolationmode  none
attr source  dropPkBitError
attr title  "packets dropped/bit error, count"
scalar hierarchical.host[2].lo0.lo 	droppedPkBitError:sum(packetBytes) 	0
attr interpolationmode  none
attr source  dropPkBitError
attr title  "packets dropped/bit error, sum(packetBytes)"
scalar hierarchical.host[2].lo0.lo 	rcvdPkFromHL:count 	0
attr interpolationmode  none
attr source  packetReceivedFromUpper
attr title  "packets received from higher layer, count"
scalar hierarchical.host[2].lo0.lo 	rcvdPkFromHL:sum(packetBytes) 	0
attr interpolationmode  none
attr source  packetReceivedFromUpper
attr title  "packets received from higher layer, sum(packetBytes)"
scalar hierarchical.host[2].lo0.lo 	passedUpPk:count 	0
attr interpolationmode  none
attr source  packetSentToUpper
attr title  "packets passed to higher layer, count"
scalar hierarchical.host[2].lo0.lo 	passedUpPk:sum(packetBytes) 	0
attr interpolationmode  none
attr source  packetSentToUpper
attr title  "packets passed to higher layer, sum(packetBytes)"
scalar hierarchical.host[2].wlan[0].mgmt 	dataQueueLen:max 	0
attr interpolationmode  sample-hold
attr title  "data queue length, max"
scalar hierarchical.host[2].wlan[0].mgmt 	dataQueueLen:timeavg 	0
attr interpolationmode  sample-hold
attr title  "data queue length, timeavg"
scalar hierarchical.host[2].wlan[0].mgmt 	dropPkByQueue:count 	0
attr interpolationmode  none
attr source  dropPkByQueue
attr title  "packets dropped by queue, count"
scalar hierarchical.host[2].wlan[0].mgmt 	dropPkByQueue:sum(packetBytes) 	0
attr interpolationmode  none
attr source  dropPkByQueue
attr title  "packets dropped by queue, sum(packetBytes)"
scalar hierarchical.host[2].wlan[0].mac 	"number of received packets" 	0
scalar hierarchical.host[2].wlan[0].mac 	"number of collisions" 	5
scalar hierarchical.host[2].wlan[0].mac 	"number of internal collisions" 	0
scalar hierarchical.host[2].wlan[0].mac 	"number of retry for AC 0" 	0
scalar hierarchical.host[2].wlan[0].mac 	"sent and received bits" 	621936
[...]
scalar hierarchical.host[18].manetrouting 	OLSR_TC_Messages_(Forwarded) 	732
scalar hierarchical.host[18].manetrouting 	OLSR_Total_HELLO 	518
scalar hierarchical.host[18].manetrouting 	OLSR_Total_HNA_(originated) 	0
scalar hierarchical.host[18].manetrouting 	OLSR_Total_TC 	0
scalar hierarchical.host[18].manetrouting 	OLSR_Total_Messages_Sent 	1435
scalar hierarchical.host[19].networkLayer.arp 	failedARPResolution:count 	0
attr title  "ARP failed resolutions, count"
scalar hierarchical.host[19].networkLayer.arp 	completedARPResolution:count 	0
attr title  "ARP completed resolutions, count"
scalar hierarchical.host[19].networkLayer.arp 	initiatedARPResolution:count 	0
attr title  "ARP initiated resolutions, count"
scalar hierarchical.host[19].networkLayer.arp 	sentReply:count 	0
attr title  "ARP replies sent, count"
scalar hierarchical.host[19].networkLayer.arp 	sentReq:count 	0
attr title  "ARP request sent, count"
scalar hierarchical.host[19].lo0.lo 	droppedPkBitError:count 	0
attr interpolationmode  none
attr source  dropPkBitError
attr title  "packets dropped/bit error, count"
scalar hierarchical.host[19].lo0.lo 	droppedPkBitError:sum(packetBytes) 	0
attr interpolationmode  none
attr source  dropPkBitError
attr title  "packets dropped/bit error, sum(packetBytes)"
scalar hierarchical.host[19].lo0.lo 	rcvdPkFromHL:count 	0
attr interpolationmode  none
attr source  packetReceivedFromUpper
attr title  "packets received from higher layer, count"
scalar hierarchical.host[19].lo0.lo 	rcvdPkFromHL:sum(packetBytes) 	0
attr interpolationmode  none
attr source  packetReceivedFromUpper
attr title  "packets received from higher layer, sum(packetBytes)"
scalar hierarchical.host[19].lo0.lo 	passedUpPk:count 	0
attr interpolationmode  none
attr source  packetSentToUpper
attr title  "packets passed to higher layer, count"
scalar hierarchical.host[19].lo0.lo 	passedUpPk:sum(packetBytes) 	0
attr interpolationmode  none
attr source  packetSentToUpper
attr title  "packets passed to higher layer, sum(packetBytes)"
scalar hierarchical.host[19].wlan[0].mgmt 	dataQueueLen:max 	0
attr interpolationmode  sample-hold
attr title  "data queue length, max"
scalar hierarchical.host[19].wlan[0].mgmt 	dataQueueLen:timeavg 	0
attr interpolationmode  sample-hold
attr title  "data queue length, timeavg"
scalar hierarchical.host[19].wlan[0].mgmt 	dropPkByQueue:count 	0
attr interpolationmode  none
attr source  dropPkByQueue
attr title  "packets dropped by queue, count"
scalar hierarchical.host[19].wlan[0].mgmt 	dropPkByQueue:sum(packetBytes) 	0
attr interpolationmode  none
attr source  dropPkByQueue
attr title  "packets dropped by queue, sum(packetBytes)"
scalar hierarchical.host[19].wlan[0].mac 	"number of received packets" 	0
scalar hierarchical.host[19].wlan[0].mac 	"number of collisions" 	25
scalar hierarchical.host[19].wlan[0].mac 	"number of internal collisions" 	0
scalar hierarchical.host[19].wlan[0].mac 	"number of retry for AC 0" 	0
scalar hierarchical.host[19].wlan[0].mac 	"sent and received bits" 	971360
scalar hierarchical.host[19].wlan[0].mac 	"sent packet within AC 0" 	0
scalar hierarchical.host[19].wlan[0].mac 	"sent in TXOP " 	0
scalar hierarchical.host[19].wlan[0].mac 	"sentWithoutRetry AC 0" 	0
scalar hierarchical.host[19].wlan[0].mac 	"numGivenUp AC 0" 	0
scalar hierarchical.host[19].wlan[0].mac 	"numDropped AC 0" 	0
scalar hierarchical.host[19].wlan[0].mac 	rcvdPkFromHL:count 	1076
attr interpolationmode  none
attr source  packetReceivedFromUpper
attr title  "packets received from higher layer, count"
scalar hierarchical.host[19].wlan[0].mac 	rcvdPkFromHL:sum(packetBytes) 	121420
attr interpolationmode  none
attr source  packetReceivedFromUpper
attr title  "packets received from higher layer, sum(packetBytes)"
scalar hierarchical.host[19].wlan[0].mac 	passedUpPk:count 	6033
attr interpolationmode  none
attr source  packetSentToUpper
attr title  "packets passed to higher layer, count"
scalar hierarchical.host[19].wlan[0].mac 	passedUpPk:sum(packetBytes) 	689782
attr interpolationmode  none
attr source  packetSentToUpper
attr title  "packets passed to higher layer, sum(packetBytes)"
scalar hierarchical.host[19].wlan[0].mac 	rcvdPkFromLL:count 	6058
attr interpolationmode  none
attr source  packetReceivedFromLower
attr title  "packets received from lower layer, count"
scalar hierarchical.host[19].wlan[0].mac 	rcvdPkFromLL:sum(packetBytes) 	692776
attr interpolationmode  none
attr source  packetReceivedFromLower
attr title  "packets received from lower layer, sum(packetBytes)"
scalar hierarchical.host[19].wlan[0].mac 	sentDownPk:count 	1076
attr interpolationmode  none
attr source  packetSentToLower
attr title  "packets sent to lower layer, count"
scalar hierarchical.host[19].wlan[0].mac 	sentDownPk:sum(packetBytes) 	121420
attr interpolationmode  none
attr source  packetSentToLower
attr title  "packets sent to lower layer, sum(packetBytes)"
scalar hierarchical.host[19].wlan[0].radio 	lossRate:min 	0
attr interpolationmode  backward-sample-hold
attr title  "packet loss rate, min"
scalar hierarchical.host[19].wlan[0].radio 	lossRate:max 	0.04
attr interpolationmode  backward-sample-hold
attr title  "packet loss rate, max"
scalar hierarchical.host[19].wlan[0].radio 	lossRate:timeavg 	0.0039937443242469
attr interpolationmode  backward-sample-hold
attr title  "packet loss rate, timeavg"
statistic hierarchical.host[19].wlan[0].radio 	channelNo:histogram
field count 1
field mean 4
field stddev -nan
field sum 4
field sqrsum 16
field min 4
field max 4
attr interpolationmode  sample-hold
attr title  "channel no, histogram"
bin	-INF	0
bin	3	0
bin	4	1
bin	5	0
scalar hierarchical.host[19].wlan[0].radio 	bitrate:min 	11000000
attr interpolationmode  sample-hold
attr title  "tx bitrate, min"
attr unit  bps
scalar hierarchical.host[19].wlan[0].radio 	bitrate:max 	11000000
attr interpolationmode  sample-hold
attr title  "tx bitrate, max"
attr unit  bps
scalar hierarchical.host[19].wlan[0].radio 	bitrate:timeavg 	11000000
attr interpolationmode  sample-hold
attr title  "tx bitrate, timeavg"
attr unit  bps
scalar hierarchical.host[19].wlan[0].radio 	radioState:count 	14269
attr interpolationmode  sample-hold
attr title  "radio state (enum), count"
scalar hierarchical.host[19].udpApp[0] 	"packets sent" 	0
scalar hierarchical.host[19].udpApp[0] 	"packets received" 	0
scalar hierarchical.host[19].udpApp[0] 	rcvdPk:count 	0
attr interpolationmode  none
attr source  rcvdPk
attr title  "packets received, count"
scalar hierarchical.host[19].udpApp[0] 	rcvdPk:sum(packetBytes) 	0
attr interpolationmode  none
attr source  rcvdPk
attr title  "packets received, sum(packetBytes)"
statistic hierarchical.host[19].udpApp[0] 	rcvdPkLifetime:stats
field count 0
field mean -nan
field stddev -nan
field sum 0
field sqrsum 0
field min -nan
field max -nan
attr interpolationmode  none
attr source  messageAge(rcvdPk)
attr title  "received packet lifetime, stats"
attr unit  s
scalar hierarchical.host[19].udpApp[0] 	sentPk:count 	0
attr interpolationmode  none
attr source  sentPk
attr title  "packets sent, count"
scalar hierarchical.host[19].udpApp[0] 	sentPk:sum(packetBytes) 	0
attr interpolationmode  none
attr source  sentPk
attr title  "packets sent, sum(packetBytes)"
scalar hierarchical.host[19].udp 	droppedPkBadChecksum:count 	0
attr interpolationmode  none
attr title  "packets dropped (checksum error), count"
scalar hierarchical.host[19].udp 	droppedPkWrongPort:count 	0
attr interpolationmode  none
attr title  "packets dropped (wrong port), count"
scalar hierarchical.host[19].udp 	passedUpPk:count 	0
attr interpolationmode  none
attr title  "packets passed up, count"
scalar hierarchical.host[19].udp 	rcvdPk:count 	0
attr interpolationmode  none
attr source  rcvdPk
attr title  "packets received, count"
scalar hierarchical.host[19].udp 	rcvdPk:sum(packetBytes) 	0
attr interpolationmode  none
attr source  rcvdPk
attr title  "packets received, sum(packetBytes)"
scalar hierarchical.host[19].udp 	sentPk:count 	0
attr interpolationmode  none
attr source  sentPk
attr title  "packets sent, count"
scalar hierarchical.host[19].udp 	sentPk:sum(packetBytes) 	0
attr interpolationmode  none
attr source  sentPk
attr title  "packets sent, sum(packetBytes)"
scalar hierarchical.host[19].manetrouting 	OLSR_HNA_Messages_(Forwarded) 	188
scalar hierarchical.host[19].manetrouting 	OLSR_TC_Messages_(Forwarded) 	551
scalar hierarchical.host[19].manetrouting 	OLSR_Total_HELLO 	512
scalar hierarchical.host[19].manetrouting 	OLSR_Total_HNA_(originated) 	0
scalar hierarchical.host[19].manetrouting 	OLSR_Total_TC 	188
scalar hierarchical.host[19].manetrouting 	OLSR_Total_Messages_Sent 	1439
scalar hierarchical.globalObserver.globalStatistics 	"GlobalStatistics: Simulation Time" 	900
scalar hierarchical.globalObserver.globalStatistics 	"BaseApp (bootstrapList): Received Bytes/s from Overlay.mean" 	0
scalar hierarchical.globalObserver.globalStatistics 	"BaseApp (bootstrapList): Received Bytes/s from UDP.mean" 	0
scalar hierarchical.globalObserver.globalStatistics 	"BaseApp (bootstrapList): Received Messages/s from Overlay.mean" 	0
scalar hierarchical.globalObserver.globalStatistics 	"BaseApp (bootstrapList): Received Messages/s from UDP.mean" 	0
scalar hierarchical.globalObserver.globalStatistics 	"BaseApp (bootstrapList): Sent Bytes/s to Overlay.mean" 	0
scalar hierarchical.globalObserver.globalStatistics 	"BaseApp (bootstrapList): Sent Bytes/s to UDP.mean" 	0
scalar hierarchical.globalObserver.globalStatistics 	"BaseApp (bootstrapList): Sent Messages/s to Overlay.mean" 	0
scalar hierarchical.globalObserver.globalStatistics 	"BaseApp (bootstrapList): Sent Messages/s to UDP.mean" 	0
scalar hierarchical.globalObserver.globalStatistics 	"BaseApp (dht): Received Bytes/s from Overlay.mean" 	5.08075
scalar hierarchical.globalObserver.globalStatistics 	"BaseApp (dht): Received Bytes/s from UDP.mean" 	0
scalar hierarchical.globalObserver.globalStatistics 	"BaseApp (dht): Received Messages/s from Overlay.mean" 	0.07875
scalar hierarchical.globalObserver.globalStatistics 	"BaseApp (dht): Received Messages/s from UDP.mean" 	0
scalar hierarchical.globalObserver.globalStatistics 	"BaseApp (dht): Sent Bytes/s to Overlay.mean" 	5.723
scalar hierarchical.globalObserver.globalStatistics 	"BaseApp (dht): Sent Bytes/s to UDP.mean" 	0
scalar hierarchical.globalObserver.globalStatistics 	"BaseApp (dht): Sent Messages/s to Overlay.mean" 	0.0885
scalar hierarchical.globalObserver.globalStatistics 	"BaseApp (dht): Sent Messages/s to UDP.mean" 	0
scalar hierarchical.globalObserver.globalStatistics 	"BaseApp (dht4routing): Received Bytes/s from Overlay.mean" 	0
scalar hierarchical.globalObserver.globalStatistics 	"BaseApp (dht4routing): Received Bytes/s from UDP.mean" 	0
scalar hierarchical.globalObserver.globalStatistics 	"BaseApp (dht4routing): Received Messages/s from Overlay.mean" 	0
scalar hierarchical.globalObserver.globalStatistics 	"BaseApp (dht4routing): Received Messages/s from UDP.mean" 	0
scalar hierarchical.globalObserver.globalStatistics 	"BaseApp (dht4routing): Sent Bytes/s to Overlay.mean" 	0
scalar hierarchical.globalObserver.globalStatistics 	"BaseApp (dht4routing): Sent Bytes/s to UDP.mean" 	0
scalar hierarchical.globalObserver.globalStatistics 	"BaseApp (dht4routing): Sent Messages/s to Overlay.mean" 	0
scalar hierarchical.globalObserver.globalStatistics 	"BaseApp (dht4routing): Sent Messages/s to UDP.mean" 	0
scalar hierarchical.globalObserver.globalStatistics 	"BaseApp (neighborCache): Received Bytes/s from Overlay.mean" 	0
scalar hierarchical.globalObserver.globalStatistics 	"BaseApp (neighborCache): Received Bytes/s from UDP.mean" 	0
scalar hierarchical.globalObserver.globalStatistics 	"BaseApp (neighborCache): Received Messages/s from Overlay.mean" 	0
scalar hierarchical.globalObserver.globalStatistics 	"BaseApp (neighborCache): Received Messages/s from UDP.mean" 	0
scalar hierarchical.globalObserver.globalStatistics 	"BaseApp (neighborCache): Sent Bytes/s to Overlay.mean" 	0
scalar hierarchical.globalObserver.globalStatistics 	"BaseApp (neighborCache): Sent Bytes/s to UDP.mean" 	0
scalar hierarchical.globalObserver.globalStatistics 	"BaseApp (neighborCache): Sent Messages/s to Overlay.mean" 	0
scalar hierarchical.globalObserver.globalStatistics 	"BaseApp (neighborCache): Sent Messages/s to UDP.mean" 	0
scalar hierarchical.globalObserver.globalStatistics 	"BaseApp (tier3): Received Bytes/s from Overlay.mean" 	0
scalar hierarchical.globalObserver.globalStatistics 	"BaseApp (tier3): Received Bytes/s from UDP.mean" 	0
scalar hierarchical.globalObserver.globalStatistics 	"BaseApp (tier3): Received Messages/s from Overlay.mean" 	0
scalar hierarchical.globalObserver.globalStatistics 	"BaseApp (tier3): Received Messages/s from UDP.mean" 	0
scalar hierarchical.globalObserver.globalStatistics 	"BaseApp (tier3): Sent Bytes/s to Overlay.mean" 	0
scalar hierarchical.globalObserver.globalStatistics 	"BaseApp (tier3): Sent Bytes/s to UDP.mean" 	0
scalar hierarchical.globalObserver.globalStatistics 	"BaseApp (tier3): Sent Messages/s to Overlay.mean" 	0
scalar hierarchical.globalObserver.globalStatistics 	"BaseApp (tier3): Sent Messages/s to UDP.mean" 	0
scalar hierarchical.globalObserver.globalStatistics 	"BaseOverlay: Dropped Bytes/s.mean" 	1.505
scalar hierarchical.globalObserver.globalStatistics 	"BaseOverlay: Dropped Messages/s.mean" 	0.0175
scalar hierarchical.globalObserver.globalStatistics 	"BaseOverlay: Forwarded App Data Bytes/s.mean" 	0
scalar hierarchical.globalObserver.globalStatistics 	"BaseOverlay: Forwarded App Data Messages/s.mean" 	0
scalar hierarchical.globalObserver.globalStatistics 	"BaseOverlay: Forwarded App Lookup Bytes/s.mean" 	0
scalar hierarchical.globalObserver.globalStatistics 	"BaseOverlay: Forwarded App Lookup Messages/s.mean" 	0
scalar hierarchical.globalObserver.globalStatistics 	"BaseOverlay: Forwarded Maintenance Bytes/s.mean" 	0
scalar hierarchical.globalObserver.globalStatistics 	"BaseOverlay: Forwarded Maintenance Messages/s.mean" 	0
scalar hierarchical.globalObserver.globalStatistics 	"BaseOverlay: Forwarded Total Bytes/s.mean" 	0
scalar hierarchical.globalObserver.globalStatistics 	"BaseOverlay: Forwarded Total Messages/s.mean" 	0
scalar hierarchical.globalObserver.globalStatistics 	"BaseOverlay: Join Retries.mean" 	1
scalar hierarchical.globalObserver.globalStatistics 	"BaseOverlay: Measured Session Time.mean" 	900
scalar hierarchical.globalObserver.globalStatistics 	"BaseOverlay: Received App Data Bytes/s.mean" 	4.9795
scalar hierarchical.globalObserver.globalStatistics 	"BaseOverlay: Received App Data Messages/s.mean" 	0.07325
scalar hierarchical.globalObserver.globalStatistics 	"BaseOverlay: Received App Lookup Bytes/s.mean" 	1.686
scalar hierarchical.globalObserver.globalStatistics 	"BaseOverlay: Received App Lookup Messages/s.mean" 	0.02
scalar hierarchical.globalObserver.globalStatistics 	"BaseOverlay: Received Maintenance Bytes/s.mean" 	30.6
scalar hierarchical.globalObserver.globalStatistics 	"BaseOverlay: Received Maintenance Messages/s.mean" 	0.6525
scalar hierarchical.globalObserver.globalStatistics 	"BaseOverlay: Received Total Bytes/s.mean" 	37.2655
scalar hierarchical.globalObserver.globalStatistics 	"BaseOverlay: Received Total Messages/s.mean" 	0.74575
scalar hierarchical.globalObserver.globalStatistics 	"BaseOverlay: Sent App Data Bytes/s.mean" 	5.40925
scalar hierarchical.globalObserver.globalStatistics 	"BaseOverlay: Sent App Data Messages/s.mean" 	0.0775
scalar hierarchical.globalObserver.globalStatistics 	"BaseOverlay: Sent App Lookup Bytes/s.mean" 	1.686
scalar hierarchical.globalObserver.globalStatistics 	"BaseOverlay: Sent App Lookup Messages/s.mean" 	0.02
scalar hierarchical.globalObserver.globalStatistics 	"BaseOverlay: Sent FailedNode Bytes/s.mean" 	0
scalar hierarchical.globalObserver.globalStatistics 	"BaseOverlay: Sent FailedNode Messages/s.mean" 	0
scalar hierarchical.globalObserver.globalStatistics 	"BaseOverlay: Sent FailedNodeResponse Bytes/s.mean" 	0
scalar hierarchical.globalObserver.globalStatistics 	"BaseOverlay: Sent FailedNodeResponse Messages/s.mean" 	0
scalar hierarchical.globalObserver.globalStatistics 	"BaseOverlay: Sent FindNode Bytes/s.mean" 	2.475
scalar hierarchical.globalObserver.globalStatistics 	"BaseOverlay: Sent FindNode Messages/s.mean" 	0.045
scalar hierarchical.globalObserver.globalStatistics 	"BaseOverlay: Sent FindNodeResponse Bytes/s.mean" 	2.1685
scalar hierarchical.globalObserver.globalStatistics 	"BaseOverlay: Sent FindNodeResponse Messages/s.mean" 	0.0275
scalar hierarchical.globalObserver.globalStatistics 	"BaseOverlay: Sent Maintenance Bytes/s.mean" 	31.5865
scalar hierarchical.globalObserver.globalStatistics 	"BaseOverlay: Sent Maintenance Messages/s.mean" 	0.67075
scalar hierarchical.globalObserver.globalStatistics 	"BaseOverlay: Sent Ping Bytes/s.mean" 	6.4
scalar hierarchical.globalObserver.globalStatistics 	"BaseOverlay: Sent Ping Messages/s.mean" 	0.2
scalar hierarchical.globalObserver.globalStatistics 	"BaseOverlay: Sent Ping Response Bytes/s.mean" 	6.4
scalar hierarchical.globalObserver.globalStatistics 	"BaseOverlay: Sent Ping Response Messages/s.mean" 	0.2
scalar hierarchical.globalObserver.globalStatistics 	"BaseOverlay: Sent Total Bytes/s.mean" 	38.68175
scalar hierarchical.globalObserver.globalStatistics 	"BaseOverlay: Sent Total Messages/s.mean" 	0.76825
scalar hierarchical.globalObserver.globalStatistics 	"Chord: Sent FIX_FINGERS Bytes/s.mean" 	1.505
scalar hierarchical.globalObserver.globalStatistics 	"Chord: Sent FIX_FINGERS Messages/s.mean" 	0.0175
scalar hierarchical.globalObserver.globalStatistics 	"Chord: Sent JOIN Bytes/s.mean" 	0
scalar hierarchical.globalObserver.globalStatistics 	"Chord: Sent JOIN Messages/s.mean" 	0
scalar hierarchical.globalObserver.globalStatistics 	"Chord: Sent NEWSUCCESSORHINT Bytes/s.mean" 	0
scalar hierarchical.globalObserver.globalStatistics 	"Chord: Sent NEWSUCCESSORHINT Messages/s.mean" 	0
scalar hierarchical.globalObserver.globalStatistics 	"Chord: Sent NOTIFY Bytes/s.mean" 	9.8
scalar hierarchical.globalObserver.globalStatistics 	"Chord: Sent NOTIFY Messages/s.mean" 	0.1
scalar hierarchical.globalObserver.globalStatistics 	"Chord: Sent STABILIZE Bytes/s.mean" 	4.524
scalar hierarchical.globalObserver.globalStatistics 	"Chord: Sent STABILIZE Messages/s.mean" 	0.10075
scalar hierarchical.globalObserver.globalStatistics 	"DHT4Routing: Failed GET Requests/s.mean" 	0
scalar hierarchical.globalObserver.globalStatistics 	"DHT4Routing: Failed PUT Requests/s.mean" 	0
scalar hierarchical.globalObserver.globalStatistics 	"DHT4Routing: GET Latency (s).mean" 	0.026966443263158
scalar hierarchical.globalObserver.globalStatistics 	"DHT4Routing: PUT Latency (s).mean" 	0.021616526315789
scalar hierarchical.globalObserver.globalStatistics 	"DHT4Routing: Sent GET Messages/s.mean" 	0.00475
scalar hierarchical.globalObserver.globalStatistics 	"DHT4Routing: Sent PUT Messages/s.mean" 	0.00475
scalar hierarchical.globalObserver.globalStatistics 	"DHT4Routing: Sent Total Messages/s.mean" 	0.0095
scalar hierarchical.globalObserver.globalStatistics 	"DHT4Routing: Successful GET Requests/s.mean" 	0
scalar hierarchical.globalObserver.globalStatistics 	"DHT4Routing: Successful PUT Requests/s.mean" 	0.00475
scalar hierarchical.globalObserver.globalStatistics 	"DHT: Sent Maintenance Bytes/s.mean" 	0.35425
scalar hierarchical.globalObserver.globalStatistics 	"DHT: Sent Maintenance Messages/s.mean" 	0.00325
scalar hierarchical.globalObserver.globalStatistics 	"DHT: Sent Normal Bytes/s.mean" 	5.36875
scalar hierarchical.globalObserver.globalStatistics 	"DHT: Sent Normal Messages/s.mean" 	0.08525
scalar hierarchical.globalObserver.globalStatistics 	"Vector: GlobalDhtTestMap: Number of stored DHT entries.mean" 	18.6375
scalar hierarchical.globalObserver.globalStatistics 	"Vector: GlobalNodeList: Number of nodes.mean" 	5
